* NGSPICE file created from TOP.ext - technology: gf180mcuD

.subckt TOP UP DOWN VCTRL CLK VDD FREERUN F6 VSS OUT LF CSVB EX
X0 a_23444_3994 a_22864_4398 VSS.t289 VSS.t288 nfet_06v0 ad=0.1312p pd=1.14u as=0.3608p ps=2.52u w=0.82u l=0.6u
X1 VDD.t112 a_22948_2038 a_22864_2486 VDD.t111 pfet_06v0 ad=0.4972p pd=3.14u as=0.2938p ps=1.65u w=1.13u l=0.5u
X2 a_23099_4907 a_23011_4951 VSS.t124 VSS.t123 nfet_06v0 ad=0.3608p pd=2.52u as=0.3608p ps=2.52u w=0.82u l=1u
X3 VSS.t301 a_23455_217 a_23407_261 VSS.t67 nfet_06v0 ad=0.2637p pd=1.825u as=43.199997f ps=0.6u w=0.36u l=0.6u
X4 F6.t15 a_23423_n1258 VSS.t102 VSS.t101 nfet_06v0 ad=0.1118p pd=0.95u as=0.1118p ps=0.95u w=0.43u l=0.6u
X5 OUT.t9 a_5840_7613.t1 cap_mim_2f0_m4m5_noshield c_width=11u c_length=11u
X6 a_22864_4398 a_22948_3950 a_22884_3994 VSS.t146 nfet_06v0 ad=0.3608p pd=2.52u as=0.1312p ps=1.14u w=0.82u l=0.6u
X7 VDD.t245 a_22388_2038.t2 a_22304_2486 VDD.t244 pfet_06v0 ad=0.4972p pd=3.14u as=0.2938p ps=1.65u w=1.13u l=0.5u
X8 VCTRL.t19 FREERUN.t0 EX.t17 VSS.t153 nfet_03v3 ad=0.26p pd=1.52u as=0.26p ps=1.52u w=1u l=0.33u
X9 a_n2908_12013 a_1220_12453 VSS.t14 ppolyf_u_1k r_width=1u r_length=20u
X10 a_24891_4907 a_24803_4951 VSS.t155 VSS.t154 nfet_06v0 ad=0.3608p pd=2.52u as=0.3608p ps=2.52u w=0.82u l=1u
X11 OUT.t10 a_5840_7613.t1 cap_mim_2f0_m4m5_noshield c_width=11u c_length=11u
X12 LF.t20 FREERUN.t1 VCTRL.t33 VDD.t157 pfet_03v3 ad=0.78p pd=3.52u as=1.95p ps=7.3u w=3u l=0.33u
X13 a_22539_3430 a_22451_3522 VDD.t22 VDD.t21 pfet_06v0 ad=0.5368p pd=3.32u as=0.5368p ps=3.32u w=1.22u l=1u
X14 a_n558_2704.t1 a_11009_2840 a_14657_n1138 VSS.t40 nfet_03v3 ad=0.5124p pd=2.9u as=0.5124p ps=2.9u w=0.84u l=0.33u
X15 VCTRL.t18 FREERUN.t2 EX.t16 VSS.t181 nfet_03v3 ad=0.26p pd=1.52u as=0.26p ps=1.52u w=1u l=0.33u
X16 LF.t21 a_n17351_68.t2 VCTRL.t40 VSS.t196 nfet_03v3 ad=0.26p pd=1.52u as=0.26p ps=1.52u w=1u l=0.33u
X17 a_22203_n358.t7 a_21855_n1258 VSS.t180 VSS.t179 nfet_06v0 ad=0.1183p pd=0.975u as=0.234325p ps=1.94u w=0.455u l=0.6u
X18 VSS.t2 a_23455_1567 a_23407_1611 VSS.t1 nfet_06v0 ad=0.2637p pd=1.825u as=43.199997f ps=0.6u w=0.36u l=0.6u
X19 LF.t41 VSS.t152 cap_mim_2f0_m4m5_noshield c_width=10u c_length=5u
X20 a_21855_4398 CLK.t0 VSS.t112 VSS.t111 nfet_06v0 ad=0.2112p pd=1.84u as=0.2112p ps=1.84u w=0.48u l=0.6u
X21 EX.t25 a_n17351_68.t3 VCTRL.t56 VDD.t212 pfet_03v3 ad=0.78p pd=3.52u as=0.78p ps=3.52u w=3u l=0.33u
X22 EX.t26 a_n17351_68.t4 VCTRL.t57 VDD.t213 pfet_03v3 ad=0.78p pd=3.52u as=0.78p ps=3.52u w=3u l=0.33u
X23 VCTRL.t58 a_n17351_68.t5 EX.t27 VDD.t214 pfet_03v3 ad=0.78p pd=3.52u as=0.78p ps=3.52u w=3u l=0.33u
X24 a_25265_7733 a_24755_6933 OUT.t7 VDD.t260 pfet_03v3 ad=0.52p pd=2.52u as=0.52p ps=2.52u w=2u l=0.33u
X25 a_22203_n358.t6 a_21855_n1258 VSS.t178 VSS.t177 nfet_06v0 ad=0.1183p pd=0.975u as=0.1183p ps=0.975u w=0.455u l=0.6u
X26 VSS.t100 a_23423_n1258 F6.t14 VSS.t99 nfet_06v0 ad=0.1118p pd=0.95u as=0.1118p ps=0.95u w=0.43u l=0.6u
X27 VCTRL.t71 a_n17351_68.t6 EX.t32 VDD.t241 pfet_03v3 ad=0.78p pd=3.52u as=0.78p ps=3.52u w=3u l=0.33u
X28 VSS.t260 a_n4208_n141.t3 a_n671_n1138 VSS.t259 nfet_03v3 ad=0.2646p pd=2.1u as=0.2646p ps=2.1u w=0.42u l=0.33u
X29 VDD.t228 a_n8471_219.t5 a_3149_2840 VDD.t227 pfet_03v3 ad=0.585p pd=3.1u as=0.585p ps=3.1u w=0.9u l=0.33u
X30 a_21755_1082 a_24383_1567 VSS.t49 VSS.t48 nfet_06v0 ad=0.3608p pd=2.52u as=0.3608p ps=2.52u w=0.82u l=0.6u
X31 EX.t33 a_n17351_68.t7 VCTRL.t72 VDD.t242 pfet_03v3 ad=0.78p pd=3.52u as=0.78p ps=3.52u w=3u l=0.33u
X32 VDD.t283 a_23620_8319.t3 a_23691_7733 VDD.t282 pfet_03v3 ad=1.3p pd=5.3u as=0.52p ps=2.52u w=2u l=0.33u
X33 VCTRL.t32 FREERUN.t3 LF.t19 VDD.t158 pfet_03v3 ad=0.78p pd=3.52u as=0.78p ps=3.52u w=3u l=0.33u
X34 VSS.t68 a_23455_n345 a_23407_n301 VSS.t67 nfet_06v0 ad=0.2637p pd=1.825u as=43.199997f ps=0.6u w=0.36u l=0.6u
X35 VSS.t131 a_n8537_n1530.t4 a_n8659_n1230 VSS.t130 nfet_03v3 ad=0.52p pd=2.52u as=0.52p ps=2.52u w=2u l=0.33u
X36 a_22987_3430 a_22899_3522 VDD.t97 VDD.t96 pfet_06v0 ad=0.5368p pd=3.32u as=0.5368p ps=3.32u w=1.22u l=1u
X37 a_25675_477 a_25587_574 VSS.t211 VSS.t210 nfet_06v0 ad=0.3608p pd=2.52u as=0.3608p ps=2.52u w=0.82u l=1u
X38 VDD.t225 a_22203_n358.t8 a_22115_253.t0 VDD.t224 pfet_06v0 ad=0.2249p pd=1.385u as=0.3806p ps=2.61u w=0.865u l=0.5u
X39 a_7177_2840 a_3345_2840 a_6981_2840 VDD.t41 pfet_03v3 ad=1.17p pd=4.9u as=1.17p ps=4.9u w=1.8u l=0.33u
X40 VDD.t13 a_23508_2038 a_22948_2038 VDD.t12 pfet_06v0 ad=0.4972p pd=3.14u as=0.2938p ps=1.65u w=1.13u l=0.5u
X41 a_27014_14933 a_24866_11400 VSS.t45 ppolyf_u r_width=0.8u r_length=22u
X42 LF.t42 VSS.t209 cap_mim_2f0_m4m5_noshield c_width=10u c_length=5u
X43 VCTRL.t73 a_n17351_68.t8 EX.t34 VDD.t243 pfet_03v3 ad=0.78p pd=3.52u as=0.78p ps=3.52u w=3u l=0.33u
X44 VDD.t156 a_21855_n1258 a_22203_n358.t3 VDD.t155 pfet_06v0 ad=0.3782p pd=1.84u as=0.3782p ps=1.84u w=1.22u l=0.5u
X45 a_22948_3950 a_23508_2038 a_23444_3994 VSS.t10 nfet_06v0 ad=0.3608p pd=2.52u as=0.1312p ps=1.14u w=0.82u l=0.6u
X46 OUT.t11 a_5840_7613.t1 cap_mim_2f0_m4m5_noshield c_width=11u c_length=11u
X47 a_26795_6933 a_n8537_93.t3 a_25265_6933 VSS.t267 nfet_03v3 ad=0.26p pd=1.52u as=0.26p ps=1.52u w=1u l=0.33u
X48 EX.t38 a_n17351_68.t9 VCTRL.t77 VDD.t315 pfet_03v3 ad=0.78p pd=3.52u as=0.78p ps=3.52u w=3u l=0.33u
X49 a_1220_13333 a_5840_13333 VSS.t0 ppolyf_u_1k r_width=1u r_length=20u
X50 LF.t40 a_n17351_68.t10 VCTRL.t78 VSS.t300 nfet_03v3 ad=0.26p pd=1.52u as=0.26p ps=1.52u w=1u l=0.33u
X51 VDD.t191 CSVB.t14 CSVB.t15 VDD.t190 pfet_03v3 ad=1.456p pd=6.12u as=1.456p ps=6.12u w=5.6u l=0.56u
X52 a_24383_217 a_24090_629 VDD.t133 VDD.t132 pfet_06v0 ad=0.352p pd=2.48u as=0.23p ps=1.54u w=0.8u l=0.5u
X53 VCTRL.t79 a_n17351_68.t11 EX.t39 VDD.t316 pfet_03v3 ad=0.78p pd=3.52u as=0.78p ps=3.52u w=3u l=0.33u
X54 a_1712_14653 OUT.t3 VSS.t0 ppolyf_u_1k r_width=1u r_length=20u
X55 VSS.t217 a_16431_6193 VSS.t13 ppolyf_u r_width=0.8u r_length=0.13m
X56 a_23407_1611 a_22527_1197 a_23083_1611 VSS.t20 nfet_06v0 ad=43.199997f pd=0.6u as=0.207p ps=1.51u w=0.36u l=0.6u
X57 a_21643_3430 a_21555_3522 VDD.t262 VDD.t261 pfet_06v0 ad=0.5368p pd=3.32u as=0.5368p ps=3.32u w=1.22u l=1u
X58 a_n8471_219.t4 a_n8537_93.t4 a_n8659_n1230 VSS.t268 nfet_03v3 ad=0.52p pd=2.52u as=1.22p ps=5.22u w=2u l=0.33u
X59 a_26049_6873 DOWN.t2 VDD.t309 VDD.t308 pfet_03v3 ad=0.52p pd=2.52u as=0.52p ps=2.52u w=2u l=0.33u
X60 a_22864_4398 a_22304_4398 VDD.t94 VDD.t93 pfet_06v0 ad=0.2938p pd=1.65u as=0.4972p ps=3.14u w=1.13u l=0.5u
X61 a_21506_13215.t9 CSVB.t18 VDD.t198 VDD.t197 pfet_03v3 ad=1.456p pd=6.12u as=1.456p ps=6.12u w=5.6u l=0.56u
X62 a_23083_1611 a_22963_1518 a_22915_1611 VSS.t242 nfet_06v0 ad=0.207p pd=1.51u as=43.199997f ps=0.6u w=0.36u l=0.6u
X63 VCTRL.t31 FREERUN.t4 LF.t18 VDD.t141 pfet_03v3 ad=0.78p pd=3.52u as=0.78p ps=3.52u w=3u l=0.33u
X64 a_n2908_11133 a_1220_11573 VSS.t14 ppolyf_u_1k r_width=1u r_length=20u
X65 a_22304_4398 a_21855_4398 VDD.t3 VDD.t2 pfet_06v0 ad=0.2938p pd=1.65u as=0.4972p ps=3.14u w=1.13u l=0.5u
X66 EX.t20 a_n17351_68.t12 VCTRL.t41 VDD.t176 pfet_03v3 ad=0.78p pd=3.52u as=0.78p ps=3.52u w=3u l=0.33u
X67 VCTRL.t42 a_n17351_68.t13 LF.t22 VSS.t204 nfet_03v3 ad=0.26p pd=1.52u as=0.26p ps=1.52u w=1u l=0.33u
X68 VSS.t110 UP.t2 a_24755_6933 VSS.t109 nfet_03v3 ad=0.26p pd=1.52u as=0.26p ps=1.52u w=1u l=0.33u
X69 F6.t7 a_23423_n1258 VDD.t81 VDD.t80 pfet_06v0 ad=0.4392p pd=1.94u as=0.3172p ps=1.74u w=1.22u l=0.5u
X70 VDD.t230 a_n8471_219.t6 a_18477_2840 VDD.t229 pfet_03v3 ad=0.585p pd=3.1u as=0.585p ps=3.1u w=0.9u l=0.33u
X71 VDD.t277 a_22864_2486 a_22388_2038.t1 VDD.t276 pfet_06v0 ad=0.2561p pd=1.505u as=0.2561p ps=1.505u w=0.985u l=0.5u
X72 VDD.t79 a_23423_n1258 F6.t6 VDD.t78 pfet_06v0 ad=0.5368p pd=3.32u as=0.4392p ps=1.94u w=1.22u l=0.5u
X73 VCTRL.t43 a_n17351_68.t14 EX.t21 VDD.t177 pfet_03v3 ad=0.78p pd=3.52u as=0.78p ps=3.52u w=3u l=0.33u
X74 a_23083_261 a_22963_217 a_22915_261 VSS.t35 nfet_06v0 ad=0.207p pd=1.51u as=43.199997f ps=0.6u w=0.36u l=0.6u
X75 VSS.t218 a_25675_n394 a_25587_n302 VSS.t210 nfet_06v0 ad=0.3608p pd=2.52u as=0.3608p ps=2.52u w=0.82u l=1u
X76 a_22959_n669 a_22527_n715 VDD.t205 VDD.t204 pfet_06v0 ad=53.999996f pd=0.66u as=0.4554p ps=3.25u w=0.36u l=0.5u
X77 VSS.t98 a_23423_n1258 F6.t13 VSS.t97 nfet_06v0 ad=0.1118p pd=0.95u as=0.1118p ps=0.95u w=0.43u l=0.6u
X78 VDD.t207 CSVB.t19 a_21506_13215.t8 VDD.t206 pfet_03v3 ad=1.456p pd=6.12u as=1.456p ps=6.12u w=5.6u l=0.56u
X79 a_23407_n301 a_22527_n715 a_23083_n301 VSS.t74 nfet_06v0 ad=43.199997f pd=0.6u as=0.207p ps=1.51u w=0.36u l=0.6u
X80 a_21855_1126 a_21755_1082 VSS.t64 VSS.t62 nfet_06v0 ad=0.2112p pd=1.84u as=0.2112p ps=1.84u w=0.48u l=0.6u
X81 a_21855_n1258 a_n558_2704.t2 VSS.t172 VSS.t171 nfet_06v0 ad=0.51425p pd=2.91u as=0.2662p ps=2.09u w=0.605u l=0.6u
X82 EX.t35 a_n17351_68.t15 VCTRL.t74 VDD.t269 pfet_03v3 ad=0.78p pd=3.52u as=0.78p ps=3.52u w=3u l=0.33u
X83 a_22959_1243 a_22527_1197 VDD.t20 VDD.t19 pfet_06v0 ad=53.999996f pd=0.66u as=0.4554p ps=3.25u w=0.36u l=0.5u
X84 VSS.t133 a_n8537_n1530.t5 a_21891_6933 VSS.t132 nfet_03v3 ad=0.61p pd=3.22u as=0.26p ps=1.52u w=1u l=0.33u
X85 LF.t43 VSS.t106 cap_mim_2f0_m4m5_noshield c_width=10u c_length=5u
X86 EX.t36 a_n17351_68.t16 VCTRL.t75 VDD.t270 pfet_03v3 ad=0.78p pd=3.52u as=0.78p ps=3.52u w=3u l=0.33u
X87 a_25265_7733 a_22941_7733.t3 a_25095_7733 VDD.t136 pfet_03v3 ad=0.52p pd=2.52u as=0.52p ps=2.52u w=2u l=0.33u
X88 a_23083_n301 a_21855_1126 a_22915_n301 VSS.t35 nfet_06v0 ad=0.207p pd=1.51u as=43.199997f ps=0.6u w=0.36u l=0.6u
X89 OUT.t12 a_5840_7613.t1 cap_mim_2f0_m4m5_noshield c_width=11u c_length=11u
X90 VCTRL.t76 a_n17351_68.t17 EX.t37 VDD.t271 pfet_03v3 ad=0.78p pd=3.52u as=0.78p ps=3.52u w=3u l=0.33u
X91 VSS.t246 a_n8537_n1530.t6 a_n8659_n1230 VSS.t245 nfet_03v3 ad=0.52p pd=2.52u as=1.22p ps=5.22u w=2u l=0.33u
X92 LF.t38 a_n17351_68.t18 VCTRL.t68 VSS.t240 nfet_03v3 ad=0.26p pd=1.52u as=0.26p ps=1.52u w=1u l=0.33u
X93 LF.t17 FREERUN.t5 VCTRL.t22 VDD.t142 pfet_03v3 ad=0.78p pd=3.52u as=0.78p ps=3.52u w=3u l=0.33u
X94 a_22941_7733.t2 a_n8537_93.t5 a_22955_6933 VSS.t243 nfet_03v3 ad=0.26p pd=1.52u as=0.26p ps=1.52u w=1u l=0.33u
X95 a_24383_n345 a_24090_n669 VDD.t170 VDD.t169 pfet_06v0 ad=0.352p pd=2.48u as=0.23p ps=1.54u w=0.8u l=0.5u
X96 a_23427_629 a_22115_253.t2 a_23083_261 VDD.t86 pfet_06v0 ad=43.199997f pd=0.6u as=0.1872p ps=1.4u w=0.36u l=0.5u
X97 a_21755_1082 a_24383_1567 VDD.t34 VDD.t33 pfet_06v0 ad=0.5368p pd=3.32u as=0.5368p ps=3.32u w=1.22u l=0.5u
X98 a_22527_1197 a_22115_1610.t2 VSS.t32 VSS.t31 nfet_06v0 ad=0.1782p pd=1.69u as=0.1053p ps=0.925u w=0.405u l=0.6u
X99 VDD.t226 a_22203_n358.t9 a_22115_1610.t0 VDD.t224 pfet_06v0 ad=0.2249p pd=1.385u as=0.3806p ps=2.61u w=0.865u l=0.5u
X100 a_21855_n1258 a_n558_2704.t3 VDD.t188 VDD.t187 pfet_06v0 ad=0.2542p pd=1.44u as=0.3608p ps=2.52u w=0.82u l=0.5u
X101 a_21506_13215.t7 CSVB.t20 VDD.t209 VDD.t208 pfet_03v3 ad=1.456p pd=6.12u as=1.456p ps=6.12u w=5.6u l=0.56u
X102 VCTRL.t17 FREERUN.t6 EX.t1 VSS.t167 nfet_03v3 ad=0.26p pd=1.52u as=0.26p ps=1.52u w=1u l=0.33u
X103 F6.t12 a_23423_n1258 VSS.t96 VSS.t95 nfet_06v0 ad=0.1118p pd=0.95u as=0.1118p ps=0.95u w=0.43u l=0.6u
X104 a_22527_574 a_22115_253.t3 VDD.t87 VDD.t82 pfet_06v0 ad=0.3806p pd=2.61u as=0.2249p ps=1.385u w=0.865u l=0.5u
X105 a_23083_n301 a_21855_1126 a_22959_n669 VDD.t27 pfet_06v0 ad=0.1872p pd=1.4u as=53.999996f ps=0.66u w=0.36u l=0.5u
X106 VSS.t61 a_22091_3430 a_22003_3522 VSS.t60 nfet_06v0 ad=0.3608p pd=2.52u as=0.3608p ps=2.52u w=0.82u l=1u
X107 a_26115_6933 a_26049_6873 a_25265_6933 VSS.t24 nfet_03v3 ad=0.26p pd=1.52u as=0.26p ps=1.52u w=1u l=0.33u
X108 a_23407_261 a_22527_574 a_23083_261 VSS.t74 nfet_06v0 ad=43.199997f pd=0.6u as=0.207p ps=1.51u w=0.36u l=0.6u
X109 a_23083_1611 a_22963_1518 a_22959_1243 VDD.t246 pfet_06v0 ad=0.1872p pd=1.4u as=53.999996f ps=0.66u w=0.36u l=0.5u
X110 a_22915_1611 a_22115_1610.t3 VSS.t34 VSS.t33 nfet_06v0 ad=43.199997f pd=0.6u as=0.1584p ps=1.6u w=0.36u l=0.6u
X111 a_22948_3950 a_22864_4398 VDD.t297 VDD.t296 pfet_06v0 ad=0.2938p pd=1.65u as=0.4972p ps=3.14u w=1.13u l=0.5u
X112 VCTRL.t21 FREERUN.t7 LF.t16 VDD.t162 pfet_03v3 ad=0.78p pd=3.52u as=0.78p ps=3.52u w=3u l=0.33u
X113 a_22203_n358.t2 a_21855_n1258 VDD.t154 VDD.t153 pfet_06v0 ad=0.3782p pd=1.84u as=0.428p ps=2.02u w=1.22u l=0.5u
X114 a_23435_3430 a_23347_3522 VDD.t46 VDD.t45 pfet_06v0 ad=0.5368p pd=3.32u as=0.5368p ps=3.32u w=1.22u l=1u
X115 EX.t31 a_n17351_68.t19 VCTRL.t69 VDD.t240 pfet_03v3 ad=0.78p pd=3.52u as=0.78p ps=3.52u w=3u l=0.33u
X116 VCTRL.t70 a_n17351_68.t20 LF.t39 VSS.t241 nfet_03v3 ad=0.26p pd=1.52u as=0.26p ps=1.52u w=1u l=0.33u
X117 VDD.t275 a_22864_2486 a_23508_2038 VDD.t274 pfet_06v0 ad=0.2197p pd=1.365u as=0.2197p ps=1.365u w=0.845u l=0.5u
X118 a_24207_4398 a_22304_4398 VSS.t119 VSS.t118 nfet_06v0 ad=0.2112p pd=1.84u as=0.2112p ps=1.84u w=0.48u l=0.6u
X119 a_23455_217 a_23083_261 VSS.t6 VSS.t5 nfet_06v0 ad=93.59999f pd=0.88u as=0.2637p ps=1.825u w=0.36u l=0.6u
X120 VDD.t266 a_n8471_219.t0 a_n8471_219.t1 VDD.t265 pfet_03v3 ad=0.585p pd=3.1u as=0.585p ps=3.1u w=0.9u l=0.33u
X121 a_25265_7733 UP.t3 a_26115_6933 VDD.t14 pfet_03v3 ad=0.52p pd=2.52u as=0.52p ps=2.52u w=2u l=0.33u
X122 a_23423_n1258 a_22203_n358.t10 VSS.t230 VSS.t229 nfet_06v0 ad=0.1053p pd=0.925u as=0.1782p ps=1.69u w=0.405u l=0.6u
X123 EX.t0 FREERUN.t8 VCTRL.t16 VSS.t188 nfet_03v3 ad=0.26p pd=1.52u as=0.26p ps=1.52u w=1u l=0.33u
X124 a_22203_n358.t1 a_21855_n1258 VDD.t152 VDD.t151 pfet_06v0 ad=0.3782p pd=1.84u as=0.3782p ps=1.84u w=1.22u l=0.5u
X125 VDD.t192 a_25675_477 a_25587_574 VDD.t134 pfet_06v0 ad=0.5368p pd=3.32u as=0.5368p ps=3.32u w=1.22u l=1u
X126 F6.t5 a_23423_n1258 VDD.t77 VDD.t76 pfet_06v0 ad=0.4392p pd=1.94u as=0.3172p ps=1.74u w=1.22u l=0.5u
X127 a_22915_n301 a_22115_n302.t2 VSS.t252 VSS.t113 nfet_06v0 ad=43.199997f pd=0.6u as=0.1584p ps=1.6u w=0.36u l=0.6u
X128 a_23423_n1258 a_22203_n358.t11 VSS.t232 VSS.t231 nfet_06v0 ad=0.1782p pd=1.69u as=0.1053p ps=0.925u w=0.405u l=0.6u
X129 VDD.t317 a_23455_217 a_23427_629 VDD.t0 pfet_06v0 ad=0.1044p pd=0.94u as=43.199997f ps=0.6u w=0.36u l=0.5u
X130 LF.t44 VSS.t107 cap_mim_2f0_m4m5_noshield c_width=10u c_length=5u
X131 a_23691_7733 a_23620_8319.t4 VDD.t36 VDD.t35 pfet_03v3 ad=0.52p pd=2.52u as=1.3p ps=5.3u w=2u l=0.33u
X132 a_n2908_7613 VSS.t44 VSS.t14 ppolyf_u_1k r_width=1u r_length=20u
X133 a_22388_3950.t1 a_23508_2038 VDD.t11 VDD.t10 pfet_06v0 ad=0.4334p pd=2.85u as=0.2561p ps=1.505u w=0.985u l=0.5u
X134 LF.t15 FREERUN.t9 VCTRL.t20 VDD.t163 pfet_03v3 ad=0.78p pd=3.52u as=0.78p ps=3.52u w=3u l=0.33u
X135 VSS.t248 a_n8537_n1530.t7 a_22955_6933 VSS.t247 nfet_03v3 ad=0.4p pd=1.8u as=0.26p ps=1.52u w=1u l=0.33u
X136 a_n2908_10253 a_1220_10693 VSS.t14 ppolyf_u_1k r_width=1u r_length=20u
X137 a_23883_3430 a_23795_3522 VDD.t85 VDD.t84 pfet_06v0 ad=0.5368p pd=3.32u as=0.5368p ps=3.32u w=1.22u l=1u
X138 a_24655_4398 a_24207_4398 VSS.t57 VSS.t56 nfet_06v0 ad=0.2112p pd=1.84u as=0.2112p ps=1.84u w=0.48u l=0.6u
X139 a_n2908_9373 a_1220_8933 VSS.t14 ppolyf_u_1k r_width=1u r_length=20u
X140 VDD.t26 a_21755_4907 a_21667_4951 VDD.t25 pfet_06v0 ad=0.5368p pd=3.32u as=0.5368p ps=3.32u w=1.22u l=1u
X141 a_21855_4398 CLK.t1 VDD.t140 VDD.t139 pfet_06v0 ad=0.5368p pd=3.32u as=0.5368p ps=3.32u w=1.22u l=0.5u
X142 a_22388_3950.t1 a_24655_4398 VDD.t256 VDD.t255 pfet_06v0 ad=0.2561p pd=1.505u as=0.4334p ps=2.85u w=0.985u l=0.5u
X143 VCTRL.t15 FREERUN.t10 EX.t13 VSS.t182 nfet_03v3 ad=0.26p pd=1.52u as=0.26p ps=1.52u w=1u l=0.33u
X144 a_21755_477 a_21667_574 VSS.t148 VSS.t147 nfet_06v0 ad=0.3608p pd=2.52u as=0.3608p ps=2.52u w=0.82u l=1u
X145 a_11009_2840 a_7177_2840 a_10813_2840 VDD.t249 pfet_03v3 ad=1.17p pd=4.9u as=1.17p ps=4.9u w=1.8u l=0.33u
X146 VDD.t232 a_n8471_219.t7 a_n683_2840 VDD.t231 pfet_03v3 ad=0.585p pd=3.1u as=0.585p ps=3.1u w=0.9u l=0.33u
X147 UP.t0 a_22388_3950.t2 VSS.t166 VSS.t165 nfet_06v0 ad=0.2112p pd=1.84u as=0.2112p ps=1.84u w=0.48u l=0.6u
X148 EX.t28 a_n17351_68.t21 VCTRL.t59 VDD.t216 pfet_03v3 ad=0.78p pd=3.52u as=1.95p ps=7.3u w=3u l=0.33u
X149 LF.t32 a_n17351_68.t22 VCTRL.t60 VSS.t225 nfet_03v3 ad=0.26p pd=1.52u as=0.26p ps=1.52u w=1u l=0.33u
X150 a_26115_6933 a_26049_6873 a_25265_6933 VSS.t23 nfet_03v3 ad=0.26p pd=1.52u as=0.26p ps=1.52u w=1u l=0.33u
X151 a_25150_3994 a_24655_4398 VSS.t256 VSS.t255 nfet_06v0 ad=0.1312p pd=1.14u as=0.3608p ps=2.52u w=0.82u l=0.6u
X152 a_22304_4398 a_22388_3950.t3 a_22324_3994 VSS.t279 nfet_06v0 ad=0.3608p pd=2.52u as=0.1312p ps=1.14u w=0.82u l=0.6u
X153 VSS.t176 a_21855_n1258 a_22203_n358.t5 VSS.t175 nfet_06v0 ad=0.2002p pd=1.79u as=0.1183p ps=0.975u w=0.455u l=0.6u
X154 VCTRL.t14 FREERUN.t11 EX.t12 VSS.t183 nfet_03v3 ad=0.26p pd=1.52u as=0.26p ps=1.52u w=1u l=0.33u
X155 VCTRL.t25 FREERUN.t12 LF.t14 VDD.t159 pfet_03v3 ad=0.78p pd=3.52u as=0.78p ps=3.52u w=3u l=0.33u
X156 a_21506_13215.t6 CSVB.t21 VDD.t211 VDD.t210 pfet_03v3 ad=1.456p pd=6.12u as=3.64p ps=12.5u w=5.6u l=0.56u
X157 VSS.t234 a_22203_n358.t12 a_22115_1610.t1 VSS.t233 nfet_06v0 ad=0.1053p pd=0.925u as=0.1782p ps=1.69u w=0.405u l=0.6u
X158 a_22963_217 a_24383_n345 VDD.t56 VDD.t55 pfet_06v0 ad=0.5368p pd=3.32u as=0.5368p ps=3.32u w=1.22u l=0.5u
X159 a_25265_7733 UP.t4 a_26115_6933 VDD.t15 pfet_03v3 ad=0.52p pd=2.52u as=0.52p ps=2.52u w=2u l=0.33u
X160 a_22388_2038.t0 a_23508_2038 a_25334_2082 VSS.t9 nfet_06v0 ad=0.3608p pd=2.52u as=0.1722p ps=1.24u w=0.82u l=0.6u
X161 a_23620_8319.t2 a_n8537_93.t6 a_23691_6933 VSS.t244 nfet_03v3 ad=0.26p pd=1.52u as=0.26p ps=1.52u w=1u l=0.33u
X162 VDD.t144 CSVB.t22 a_21506_13215.t5 VDD.t143 pfet_03v3 ad=3.64p pd=12.5u as=1.456p ps=6.12u w=5.6u l=0.56u
X163 a_1712_7613 a_5840_7613.t0 VSS.t0 ppolyf_u_1k r_width=1u r_length=20u
X164 VDD.t281 a_22941_7733.t0 a_22941_7733.t1 VDD.t280 pfet_03v3 ad=1.072p pd=5.3u as=1.072p ps=5.3u w=0.8u l=0.33u
X165 VDD.t264 a_24383_217 a_24375_629 VDD.t31 pfet_06v0 ad=0.23p pd=1.54u as=50.399998f ps=0.64u w=0.36u l=0.5u
X166 VCTRL.t61 a_n17351_68.t23 LF.t33 VSS.t226 nfet_03v3 ad=0.26p pd=1.52u as=0.26p ps=1.52u w=1u l=0.33u
X167 VDD.t200 a_n558_2704.t4 a_21855_n1258 VDD.t199 pfet_06v0 ad=0.428p pd=2.02u as=0.2542p ps=1.44u w=0.82u l=0.5u
X168 a_1712_9373 a_5840_8933 VSS.t0 ppolyf_u_1k r_width=1u r_length=20u
X169 a_23691_7733 a_22941_7733.t4 a_23620_8319.t1 VDD.t137 pfet_03v3 ad=0.52p pd=2.52u as=0.52p ps=2.52u w=2u l=0.33u
X170 a_21891_6933 a_n8537_n1530.t8 VSS.t84 VSS.t83 nfet_03v3 ad=0.26p pd=1.52u as=0.61p ps=3.22u w=1u l=0.33u
X171 a_1712_11133 a_5840_11573 VSS.t0 ppolyf_u_1k r_width=1u r_length=20u
X172 a_n2908_14213 a_1220_14653 VSS.t14 ppolyf_u_1k r_width=1u r_length=20u
X173 a_24755_6933 UP.t5 VDD.t254 VDD.t253 pfet_03v3 ad=0.52p pd=2.52u as=1.3p ps=5.3u w=2u l=0.33u
X174 a_22915_261 a_22115_253.t4 VSS.t114 VSS.t113 nfet_06v0 ad=43.199997f pd=0.6u as=0.1584p ps=1.6u w=0.36u l=0.6u
X175 a_24090_629 a_22115_253.t5 a_23455_217 VDD.t88 pfet_06v0 ad=0.1665p pd=1.285u as=0.1791p ps=1.355u w=0.36u l=0.5u
X176 OUT.t13 a_5840_7613.t1 cap_mim_2f0_m4m5_noshield c_width=11u c_length=11u
X177 LF.t29 a_n17351_68.t24 VCTRL.t53 VSS.t222 nfet_03v3 ad=0.26p pd=1.52u as=0.26p ps=1.52u w=1u l=0.33u
X178 VDD.t146 CSVB.t23 a_21506_13215.t4 VDD.t145 pfet_03v3 ad=1.456p pd=6.12u as=1.456p ps=6.12u w=5.6u l=0.56u
X179 VCTRL.t24 FREERUN.t13 LF.t13 VDD.t193 pfet_03v3 ad=1.95p pd=7.3u as=0.78p ps=3.52u w=3u l=0.33u
X180 LF.t12 FREERUN.t14 VCTRL.t23 VDD.t194 pfet_03v3 ad=0.78p pd=3.52u as=0.78p ps=3.52u w=3u l=0.33u
X181 VDD.t30 a_23547_4907 a_23459_4951 VDD.t29 pfet_06v0 ad=0.5368p pd=3.32u as=0.5368p ps=3.32u w=1.22u l=1u
X182 VSS.t278 a_n8537_93.t1 a_n8537_93.t2 VSS.t277 nfet_03v3 ad=0.496p pd=3.22u as=0.496p ps=3.22u w=0.4u l=0.33u
X183 VSS.t237 a_22203_n358.t13 a_23423_n1258 VSS.t236 nfet_06v0 ad=0.1053p pd=0.925u as=0.1053p ps=0.925u w=0.405u l=0.6u
X184 a_27814_14933 a_27414_10401 VSS.t104 ppolyf_u r_width=0.8u r_length=22u
X185 a_25104_3522 a_22304_4398 a_24900_3522 VSS.t117 nfet_06v0 ad=0.1517p pd=1.19u as=0.1722p ps=1.24u w=0.82u l=0.6u
X186 a_3345_2840 a_n487_2840 a_3149_2840 VDD.t95 pfet_03v3 ad=1.17p pd=4.9u as=1.17p ps=4.9u w=1.8u l=0.33u
X187 OUT.t14 a_5840_7613.t1 cap_mim_2f0_m4m5_noshield c_width=11u c_length=11u
X188 a_25334_3994 a_22864_4398 a_25150_3994 VSS.t287 nfet_06v0 ad=0.1722p pd=1.24u as=0.1312p ps=1.14u w=0.82u l=0.6u
X189 a_22884_2082 a_22304_2486 VSS.t80 VSS.t79 nfet_06v0 ad=0.1312p pd=1.14u as=0.3608p ps=2.52u w=0.82u l=0.6u
X190 a_22527_574 a_22115_253.t6 VSS.t302 VSS.t290 nfet_06v0 ad=0.1782p pd=1.69u as=0.1053p ps=0.925u w=0.405u l=0.6u
X191 VDD.t38 a_23620_8319.t5 a_26795_7733 VDD.t37 pfet_03v3 ad=0.52p pd=2.52u as=0.52p ps=2.52u w=2u l=0.33u
X192 a_n2908_8493 a_1220_8053 VSS.t14 ppolyf_u_1k r_width=1u r_length=20u
X193 a_25265_6933 DOWN.t3 OUT.t1 VSS.t140 nfet_03v3 ad=0.26p pd=1.52u as=0.26p ps=1.52u w=1u l=0.33u
X194 LF.t45 VSS.t152 cap_mim_2f0_m4m5_noshield c_width=10u c_length=5u
X195 a_22324_2082 a_21855_2486 VSS.t285 VSS.t284 nfet_06v0 ad=0.1312p pd=1.14u as=0.3608p ps=2.52u w=0.82u l=0.6u
X196 a_7177_2840 a_3345_2840 a_6993_n1138 VSS.t58 nfet_03v3 ad=0.5124p pd=2.9u as=0.5124p ps=2.9u w=0.84u l=0.33u
X197 a_n487_2840 a_n558_2704.t5 a_n671_n1138 VSS.t197 nfet_03v3 ad=0.5124p pd=2.9u as=0.5124p ps=2.9u w=0.84u l=0.33u
X198 OUT.t15 a_5840_7613.t1 cap_mim_2f0_m4m5_noshield c_width=11u c_length=11u
X199 CSVB.t13 CSVB.t12 VDD.t121 VDD.t120 pfet_03v3 ad=1.456p pd=6.12u as=1.456p ps=6.12u w=5.6u l=0.56u
X200 a_24335_261 a_22115_253.t7 a_24090_629 VSS.t164 nfet_06v0 ad=43.199997f pd=0.6u as=93.59999f ps=0.88u w=0.36u l=0.6u
X201 a_23455_n345 a_23083_n301 VDD.t131 VDD.t130 pfet_06v0 ad=0.1791p pd=1.355u as=0.1044p ps=0.94u w=0.36u l=0.5u
X202 VDD.t182 a_22203_4907 a_22115_4951 VDD.t181 pfet_06v0 ad=0.5368p pd=3.32u as=0.5368p ps=3.32u w=1.22u l=1u
X203 OUT.t6 a_24755_6933 a_25265_7733 VDD.t259 pfet_03v3 ad=0.52p pd=2.52u as=0.52p ps=2.52u w=2u l=0.33u
X204 a_22527_n715 a_22115_n302.t3 VDD.t252 VDD.t251 pfet_06v0 ad=0.3806p pd=2.61u as=0.2249p ps=1.385u w=0.865u l=0.5u
X205 VDD.t165 a_23995_4907 a_23907_4951 VDD.t164 pfet_06v0 ad=0.5368p pd=3.32u as=0.5368p ps=3.32u w=1.22u l=1u
X206 a_23455_1567 a_23083_1611 VDD.t250 VDD.t4 pfet_06v0 ad=0.1791p pd=1.355u as=0.1044p ps=0.94u w=0.36u l=0.5u
X207 a_n4208_n141.t2 a_n8471_219.t8 VDD.t219 VDD.t218 pfet_03v3 ad=0.585p pd=3.1u as=0.585p ps=3.1u w=0.9u l=0.33u
X208 LF.t11 FREERUN.t15 VCTRL.t39 VDD.t195 pfet_03v3 ad=0.78p pd=3.52u as=0.78p ps=3.52u w=3u l=0.33u
X209 F6.t4 a_23423_n1258 VDD.t75 VDD.t74 pfet_06v0 ad=0.4392p pd=1.94u as=0.3172p ps=1.74u w=1.22u l=0.5u
X210 VSS.t94 a_23423_n1258 F6.t11 VSS.t93 nfet_06v0 ad=0.1892p pd=1.74u as=0.1118p ps=0.95u w=0.43u l=0.6u
X211 a_23455_217 a_23083_261 VDD.t5 VDD.t4 pfet_06v0 ad=0.1791p pd=1.355u as=0.1044p ps=0.94u w=0.36u l=0.5u
X212 VDD.t268 a_21755_477 a_21667_574 VDD.t267 pfet_06v0 ad=0.5368p pd=3.32u as=0.5368p ps=3.32u w=1.22u l=1u
X213 a_22955_6933 a_n8537_n1530.t9 VSS.t86 VSS.t85 nfet_03v3 ad=0.26p pd=1.52u as=0.61p ps=3.22u w=1u l=0.33u
X214 LF.t46 VSS.t209 cap_mim_2f0_m4m5_noshield c_width=10u c_length=5u
X215 a_1712_8493 a_5840_8053 VSS.t0 ppolyf_u_1k r_width=1u r_length=20u
X216 a_24207_4398 a_22304_4398 VDD.t92 VDD.t91 pfet_06v0 ad=0.5368p pd=3.32u as=0.5368p ps=3.32u w=1.22u l=0.5u
X217 VSS.t16 a_25675_1518 a_25587_1610 VSS.t15 nfet_06v0 ad=0.3608p pd=2.52u as=0.3608p ps=2.52u w=0.82u l=1u
X218 a_21855_2486 a_21755_1082 VSS.t63 VSS.t62 nfet_06v0 ad=0.2112p pd=1.84u as=0.2112p ps=1.84u w=0.48u l=0.6u
X219 VDD.t99 a_22651_4907 a_22563_4951 VDD.t98 pfet_06v0 ad=0.5368p pd=3.32u as=0.5368p ps=3.32u w=1.22u l=1u
X220 a_23444_2082 a_22864_2486 VSS.t266 VSS.t265 nfet_06v0 ad=0.1312p pd=1.14u as=0.3608p ps=2.52u w=0.82u l=0.6u
X221 VDD.t105 a_25339_4907 a_25251_4951 VDD.t104 pfet_06v0 ad=0.5368p pd=3.32u as=0.5368p ps=3.32u w=1.22u l=1u
X222 a_18673_2840 a_n558_2704.t6 a_18477_2840 VDD.t215 pfet_03v3 ad=1.17p pd=4.9u as=1.17p ps=4.9u w=1.8u l=0.33u
X223 a_1712_10253 a_5840_10693 VSS.t0 ppolyf_u_1k r_width=1u r_length=20u
X224 a_24383_217 a_24090_629 VSS.t151 VSS.t150 nfet_06v0 ad=0.176p pd=1.68u as=0.142p ps=1.14u w=0.4u l=0.6u
X225 a_n2908_13333 a_1220_13773 VSS.t14 ppolyf_u_1k r_width=1u r_length=20u
X226 VCTRL.t54 a_n17351_68.t25 LF.t30 VSS.t223 nfet_03v3 ad=0.26p pd=1.52u as=0.26p ps=1.52u w=1u l=0.33u
X227 a_25265_6933 DOWN.t4 OUT.t2 VSS.t141 nfet_03v3 ad=0.26p pd=1.52u as=0.26p ps=1.52u w=1u l=0.33u
X228 VDD.t150 a_21855_n1258 a_22203_n358.t0 VDD.t149 pfet_06v0 ad=0.5368p pd=3.32u as=0.3782p ps=1.84u w=1.22u l=0.5u
X229 VDD.t52 a_23455_n345 a_23427_n669 VDD.t51 pfet_06v0 ad=0.1044p pd=0.94u as=43.199997f ps=0.6u w=0.36u l=0.5u
X230 EX.t3 FREERUN.t16 VCTRL.t13 VSS.t184 nfet_03v3 ad=0.26p pd=1.52u as=0.65p ps=3.3u w=1u l=0.33u
X231 a_21855_1126 a_21755_1082 VDD.t50 VDD.t49 pfet_06v0 ad=0.5368p pd=3.32u as=0.5368p ps=3.32u w=1.22u l=0.5u
X232 a_22864_2486 a_22948_2038 a_22884_2082 VSS.t127 nfet_06v0 ad=0.3608p pd=2.52u as=0.1312p ps=1.14u w=0.82u l=0.6u
X233 VSS.t135 a_n8537_n1530.t10 a_23691_6933 VSS.t134 nfet_03v3 ad=0.61p pd=3.22u as=0.26p ps=1.52u w=1u l=0.33u
X234 VDD.t1 a_23455_1567 a_23427_1243 VDD.t0 pfet_06v0 ad=0.1044p pd=0.94u as=43.199997f ps=0.6u w=0.36u l=0.5u
X235 a_23508_2038 a_22304_2486 VDD.t63 VDD.t62 pfet_06v0 ad=0.2197p pd=1.365u as=0.3718p ps=2.57u w=0.845u l=0.5u
X236 a_n8471_219.t3 VCTRL.t80 a_n9701_6193 VSS.t274 nfet_03v3 ad=0.488p pd=2.82u as=0.488p ps=2.82u w=0.8u l=0.33u
X237 EX.t2 FREERUN.t17 VCTRL.t12 VSS.t185 nfet_03v3 ad=0.26p pd=1.52u as=0.26p ps=1.52u w=1u l=0.33u
X238 a_18673_2840 a_n558_2704.t7 a_18489_n1138 VSS.t216 nfet_03v3 ad=0.5124p pd=2.9u as=0.5124p ps=2.9u w=0.84u l=0.33u
X239 a_24655_4398 a_24207_4398 VDD.t40 VDD.t39 pfet_06v0 ad=0.5368p pd=3.32u as=0.5368p ps=3.32u w=1.22u l=0.5u
X240 VDD.t234 a_22203_n358.t14 a_23423_n1258 VDD.t233 pfet_06v0 ad=0.2132p pd=1.34u as=0.2952p ps=1.54u w=0.82u l=0.5u
X241 LF.t10 FREERUN.t18 VCTRL.t38 VDD.t160 pfet_03v3 ad=0.78p pd=3.52u as=0.78p ps=3.52u w=3u l=0.33u
D0 VSS.t129 VSS.t128 diode_nd2ps_06v0 pj=1.86u area=0.2052p
X242 a_n2908_12013 a_1220_11573 VSS.t14 ppolyf_u_1k r_width=1u r_length=20u
X243 a_24383_1567 a_24090_1243 VSS.t299 VSS.t298 nfet_06v0 ad=0.176p pd=1.68u as=0.142p ps=1.14u w=0.4u l=0.6u
X244 UP.t1 a_22388_3950.t4 VDD.t289 VDD.t288 pfet_06v0 ad=0.5368p pd=3.32u as=0.5368p ps=3.32u w=1.22u l=0.5u
X245 EX.t19 FREERUN.t19 VCTRL.t11 VSS.t168 nfet_03v3 ad=0.26p pd=1.52u as=0.26p ps=1.52u w=1u l=0.33u
X246 a_23508_2038 a_22864_4398 a_25104_3522 VSS.t286 nfet_06v0 ad=0.3608p pd=2.52u as=0.1517p ps=1.19u w=0.82u l=0.6u
X247 a_25095_7733 a_23620_8319.t6 VDD.t301 VDD.t300 pfet_03v3 ad=0.52p pd=2.52u as=0.52p ps=2.52u w=2u l=0.33u
X248 a_23455_1567 a_23083_1611 VSS.t251 VSS.t250 nfet_06v0 ad=93.59999f pd=0.88u as=0.2637p ps=1.825u w=0.36u l=0.6u
X249 a_22091_3430 a_22003_3522 VDD.t17 VDD.t16 pfet_06v0 ad=0.5368p pd=3.32u as=0.5368p ps=3.32u w=1.22u l=1u
X250 a_24866_11400 a_21506_13215.t10 CSVB.t16 VSS.t38 nfet_03v3 ad=3.416p pd=12.42u as=1.456p ps=6.12u w=5.6u l=0.56u
X251 VCTRL.t10 FREERUN.t20 EX.t18 VSS.t169 nfet_03v3 ad=0.26p pd=1.52u as=0.26p ps=1.52u w=1u l=0.33u
X252 a_26049_6873 DOWN.t5 VSS.t126 VSS.t125 nfet_03v3 ad=0.26p pd=1.52u as=0.26p ps=1.52u w=1u l=0.33u
X253 a_22959_629 a_22527_574 VDD.t57 VDD.t19 pfet_06v0 ad=53.999996f pd=0.66u as=0.4554p ps=3.25u w=0.36u l=0.5u
X254 a_22864_2486 a_22304_2486 VDD.t61 VDD.t60 pfet_06v0 ad=0.2938p pd=1.65u as=0.4972p ps=3.14u w=1.13u l=0.5u
X255 VSS.t262 a_n4208_n141.t4 a_18489_n1138 VSS.t261 nfet_03v3 ad=0.2646p pd=2.1u as=0.2646p ps=2.1u w=0.42u l=0.33u
X256 a_24383_n345 a_24090_n669 VSS.t198 VSS.t150 nfet_06v0 ad=0.176p pd=1.68u as=0.142p ps=1.14u w=0.4u l=0.6u
X257 VCTRL.t55 a_n17351_68.t26 LF.t31 VSS.t224 nfet_03v3 ad=0.26p pd=1.52u as=0.26p ps=1.52u w=1u l=0.33u
X258 VDD.t73 a_23423_n1258 F6.t3 VDD.t72 pfet_06v0 ad=0.3172p pd=1.74u as=0.4392p ps=1.94u w=1.22u l=0.5u
X259 a_22304_2486 a_21855_2486 VDD.t291 VDD.t290 pfet_06v0 ad=0.2938p pd=1.65u as=0.4972p ps=3.14u w=1.13u l=0.5u
X260 VDD.t24 a_24443_4907 a_24355_4951 VDD.t23 pfet_06v0 ad=0.5368p pd=3.32u as=0.5368p ps=3.32u w=1.22u l=1u
X261 VCTRL.t9 FREERUN.t21 EX.t11 VSS.t170 nfet_03v3 ad=0.26p pd=1.52u as=0.26p ps=1.52u w=1u l=0.33u
X262 a_1712_14653 a_5840_14213 VSS.t0 ppolyf_u_1k r_width=1u r_length=20u
X263 VDD.t103 DOWN.t6 a_26049_6873 VDD.t102 pfet_03v3 ad=1.3p pd=5.3u as=0.52p ps=2.52u w=2u l=0.33u
X264 a_22948_2038 a_23508_2038 a_23444_2082 VSS.t8 nfet_06v0 ad=0.3608p pd=2.52u as=0.1312p ps=1.14u w=0.82u l=0.6u
X265 VDD.t295 a_22864_4398 a_23508_2038 VDD.t294 pfet_06v0 ad=0.3718p pd=2.57u as=0.2197p ps=1.365u w=0.845u l=0.5u
X266 a_23455_n345 a_23083_n301 VSS.t149 VSS.t5 nfet_06v0 ad=93.59999f pd=0.88u as=0.2637p ps=1.825u w=0.36u l=0.6u
X267 OUT.t16 a_5840_7613.t1 cap_mim_2f0_m4m5_noshield c_width=11u c_length=11u
X268 a_24383_1567 a_24090_1243 VDD.t314 VDD.t132 pfet_06v0 ad=0.352p pd=2.48u as=0.23p ps=1.54u w=0.8u l=0.5u
X269 VCTRL.t8 FREERUN.t22 EX.t10 VSS.t296 nfet_03v3 ad=0.65p pd=3.3u as=0.26p ps=1.52u w=1u l=0.33u
X270 a_25265_6933 a_n8537_93.t7 a_25095_6933 VSS.t303 nfet_03v3 ad=0.26p pd=1.52u as=0.26p ps=1.52u w=1u l=0.33u
X271 LF.t9 FREERUN.t23 VCTRL.t37 VDD.t312 pfet_03v3 ad=0.78p pd=3.52u as=0.78p ps=3.52u w=3u l=0.33u
X272 a_n2908_9373 a_1220_9813 VSS.t14 ppolyf_u_1k r_width=1u r_length=20u
X273 VDD.t319 a_23099_4907 a_23011_4951 VDD.t318 pfet_06v0 ad=0.5368p pd=3.32u as=0.5368p ps=3.32u w=1.22u l=1u
X274 VDD.t117 a_21755_n830 a_21667_n786 VDD.t116 pfet_06v0 ad=0.5368p pd=3.32u as=0.5368p ps=3.32u w=1.22u l=1u
X275 a_n487_2840 a_n558_2704.t8 a_n683_2840 VDD.t189 pfet_03v3 ad=1.17p pd=4.9u as=1.17p ps=4.9u w=1.8u l=0.33u
X276 OUT.t5 a_24755_6933 a_25265_7733 VDD.t258 pfet_03v3 ad=0.52p pd=2.52u as=0.52p ps=2.52u w=2u l=0.33u
X277 VDD.t248 a_24891_4907 a_24803_4951 VDD.t247 pfet_06v0 ad=0.5368p pd=3.32u as=0.5368p ps=3.32u w=1.22u l=1u
X278 CSVB.t11 CSVB.t10 VDD.t119 VDD.t118 pfet_03v3 ad=1.456p pd=6.12u as=1.456p ps=6.12u w=5.6u l=0.56u
X279 LF.t23 a_n17351_68.t27 VCTRL.t47 VSS.t206 nfet_03v3 ad=0.26p pd=1.52u as=0.65p ps=3.3u w=1u l=0.33u
X280 VDD.t54 a_24383_n345 a_24375_n669 VDD.t53 pfet_06v0 ad=0.23p pd=1.54u as=50.399998f ps=0.64u w=0.36u l=0.5u