* NGSPICE file created from TOP.ext - technology: gf180mcuD

.subckt logic_layout F6 DOWN UP GND VDD VCOIN CLK
X0 a_1792_n5184 a_572_n4284.t4 GND.t82 GND.t81 nfet_06v0 ad=0.1053p pd=0.925u as=0.1782p ps=1.69u w=0.405u l=0.6u
X1 a_896_n2729 a_484_n2316.t2 GND.t130 GND.t129 nfet_06v0 ad=0.1782p pd=1.69u as=0.1053p ps=0.925u w=0.405u l=0.6u
X2 a_1328_n4595 a_896_n4641 VDD.t138 VDD.t137 pfet_06v0 ad=53.999996f pd=0.66u as=0.4554p ps=3.25u w=0.36u l=0.5u
X3 a_3703_68 a_1233_472 a_3519_68 GND.t42 nfet_06v0 ad=0.1722p pd=1.24u as=0.1312p ps=1.14u w=0.82u l=0.6u
X4 VDD.t163 a_1877_n1888 a_1317_n1888 VDD.t162 pfet_06v0 ad=0.4972p pd=3.14u as=0.2938p ps=1.65u w=1.13u l=0.5u
X5 F6.t7 a_1792_n5184 GND.t17 GND.t16 nfet_06v0 ad=0.1118p pd=0.95u as=0.1118p ps=0.95u w=0.43u l=0.6u
X6 a_2459_n4595 a_896_n4641 a_1824_n4271 GND.t109 nfet_06v0 ad=93.59999f pd=0.88u as=93.59999f ps=0.88u w=0.36u l=0.6u
X7 a_1284_n4227 a_484_n4228.t2 GND.t20 GND.t19 nfet_06v0 ad=43.199997f pd=0.6u as=0.1584p ps=1.6u w=0.36u l=0.6u
X8 GND.t80 a_572_n4284.t5 a_484_n3673.t0 GND.t74 nfet_06v0 ad=0.1053p pd=0.925u as=0.1782p ps=1.69u w=0.405u l=0.6u
X9 VDD.t45 a_1233_472 a_757_24 VDD.t44 pfet_06v0 ad=0.2561p pd=1.505u as=0.2561p ps=1.505u w=0.985u l=0.5u
X10 GND.t112 a_908_n496 a_820_n404 GND.t111 nfet_06v0 ad=0.3608p pd=2.52u as=0.3608p ps=2.52u w=0.82u l=1u
X11 a_1824_n3709 a_1452_n3665 GND.t146 GND.t113 nfet_06v0 ad=93.59999f pd=0.88u as=0.2637p ps=1.825u w=0.36u l=0.6u
X12 GND.t121 a_1356_n496 a_1268_n404 GND.t120 nfet_06v0 ad=0.3608p pd=2.52u as=0.3608p ps=2.52u w=0.82u l=1u
X13 a_673_n1440 a_224_n1440 VDD.t129 VDD.t128 pfet_06v0 ad=0.2938p pd=1.65u as=0.4972p ps=3.14u w=1.13u l=0.5u
X14 a_2704_n3665 a_484_n3673.t2 a_2459_n3297 GND.t45 nfet_06v0 ad=43.199997f pd=0.6u as=93.59999f ps=0.88u w=0.36u l=0.6u
X15 a_3703_n1844 a_1233_n1440 a_3519_n1844 GND.t38 nfet_06v0 ad=0.1722p pd=1.24u as=0.1312p ps=1.14u w=0.82u l=0.6u
X16 GND.t15 a_1792_n5184 F6.t6 GND.t14 nfet_06v0 ad=0.1892p pd=1.74u as=0.1118p ps=0.95u w=0.43u l=0.6u
X17 a_673_472 a_757_24 a_693_68 GND.t50 nfet_06v0 ad=0.3608p pd=2.52u as=0.1312p ps=1.14u w=0.82u l=0.6u
X18 a_1452_n3665 a_1332_n3709 a_1284_n3665 GND.t56 nfet_06v0 ad=0.207p pd=1.51u as=43.199997f ps=0.6u w=0.36u l=0.6u
X19 a_757_n1888.t0 a_3024_n1440 VDD.t23 VDD.t22 pfet_06v0 ad=0.2561p pd=1.505u as=0.4334p ps=2.85u w=0.985u l=0.5u
X20 a_693_68 a_224_472 GND.t28 GND.t27 nfet_06v0 ad=0.1312p pd=1.14u as=0.3608p ps=2.52u w=0.82u l=0.6u
X21 a_1452_n3665 a_1332_n3709 a_1328_n3297 VDD.t63 pfet_06v0 ad=0.1872p pd=1.4u as=53.999996f ps=0.66u w=0.36u l=0.5u
X22 a_1877_n1888 a_673_n1440 VDD.t96 VDD.t95 pfet_06v0 ad=0.2197p pd=1.365u as=0.3718p ps=2.57u w=0.845u l=0.5u
X23 a_1776_n3665 a_896_n3352 a_1452_n3665 GND.t110 nfet_06v0 ad=43.199997f pd=0.6u as=0.207p ps=1.51u w=0.36u l=0.6u
X24 GND.t54 a_12_n496 a_n76_n404 GND.t53 nfet_06v0 ad=0.3608p pd=2.52u as=0.3608p ps=2.52u w=0.82u l=1u
X25 a_2576_n1440 a_673_n1440 VDD.t94 VDD.t93 pfet_06v0 ad=0.5368p pd=3.32u as=0.5368p ps=3.32u w=1.22u l=0.5u
X26 a_1792_n5184 a_572_n4284.t6 VDD.t88 VDD.t87 pfet_06v0 ad=0.2952p pd=1.54u as=0.2132p ps=1.34u w=0.82u l=0.5u
X27 a_1824_n4271 a_1452_n4227 GND.t114 GND.t113 nfet_06v0 ad=93.59999f pd=0.88u as=0.2637p ps=1.825u w=0.36u l=0.6u
X28 a_757_24 a_1877_n1888 VDD.t161 VDD.t160 pfet_06v0 ad=0.4334p pd=2.85u as=0.2561p ps=1.505u w=0.985u l=0.5u
X29 GND.t13 a_1792_n5184 F6.t5 GND.t12 nfet_06v0 ad=0.1118p pd=0.95u as=0.1118p ps=0.95u w=0.43u l=0.6u
X30 VDD.t166 a_1824_n4271 a_1796_n4595 VDD.t165 pfet_06v0 ad=0.1044p pd=0.94u as=43.199997f ps=0.6u w=0.36u l=0.5u
X31 a_2752_n3709 a_2459_n3297 GND.t108 GND.t30 nfet_06v0 ad=0.176p pd=1.68u as=0.142p ps=1.14u w=0.4u l=0.6u
X32 a_2704_n4227 a_484_n4228.t3 a_2459_n4595 GND.t45 nfet_06v0 ad=43.199997f pd=0.6u as=93.59999f ps=0.88u w=0.36u l=0.6u
X33 a_1796_n3297 a_484_n3673.t3 a_1452_n3665 VDD.t48 pfet_06v0 ad=43.199997f pd=0.6u as=0.1872p ps=1.4u w=0.36u l=0.5u
X34 VDD.t17 a_1792_n5184 F6.t15 VDD.t16 pfet_06v0 ad=0.3172p pd=1.74u as=0.4392p ps=1.94u w=1.22u l=0.5u
X35 a_896_n3352 a_484_n3673.t4 GND.t131 GND.t46 nfet_06v0 ad=0.1782p pd=1.69u as=0.1053p ps=0.925u w=0.405u l=0.6u
X36 F6.t14 a_1792_n5184 VDD.t15 VDD.t14 pfet_06v0 ad=0.4392p pd=1.94u as=0.3172p ps=1.74u w=1.22u l=0.5u
X37 a_1452_n4227 a_224_n2800 a_1284_n4227 GND.t56 nfet_06v0 ad=0.207p pd=1.51u as=43.199997f ps=0.6u w=0.36u l=0.6u
X38 VDD.t43 a_1233_472 a_1877_n1888 VDD.t42 pfet_06v0 ad=0.3718p pd=2.57u as=0.2197p ps=1.365u w=0.845u l=0.5u
X39 VDD.t13 a_1792_n5184 F6.t13 VDD.t12 pfet_06v0 ad=0.3172p pd=1.74u as=0.4392p ps=1.94u w=1.22u l=0.5u
X40 VDD.t142 a_124_n4756 a_36_n4712 VDD.t141 pfet_06v0 ad=0.5368p pd=3.32u as=0.5368p ps=3.32u w=1.22u l=1u
X41 a_460_n496 a_372_n404 VDD.t116 VDD.t115 pfet_06v0 ad=0.5368p pd=3.32u as=0.5368p ps=3.32u w=1.22u l=1u
X42 a_3519_n1844 a_3024_n1440 GND.t24 GND.t23 nfet_06v0 ad=0.1312p pd=1.14u as=0.3608p ps=2.52u w=0.82u l=0.6u
X43 GND.t67 a_2752_n3709 a_2704_n3665 GND.t66 nfet_06v0 ad=0.142p pd=1.14u as=43.199997f ps=0.6u w=0.36u l=0.6u
X44 a_673_472 a_224_472 VDD.t27 VDD.t26 pfet_06v0 ad=0.2938p pd=1.65u as=0.4972p ps=3.14u w=1.13u l=0.5u
X45 a_1332_n2408 a_2752_n3709 GND.t65 GND.t64 nfet_06v0 ad=0.3608p pd=2.52u as=0.3608p ps=2.52u w=0.82u l=0.6u
X46 a_1824_n3709 a_1452_n3665 VDD.t164 VDD.t20 pfet_06v0 ad=0.1791p pd=1.355u as=0.1044p ps=0.94u w=0.36u l=0.5u
X47 a_224_n5184 VCOIN.t0 GND.t126 GND.t125 nfet_06v0 ad=0.51425p pd=2.91u as=0.2662p ps=2.09u w=0.605u l=0.6u
X48 GND.t52 a_2252_n496 a_2164_n404 GND.t51 nfet_06v0 ad=0.3608p pd=2.52u as=0.3608p ps=2.52u w=0.82u l=1u
X49 a_1776_n4227 a_896_n4641 a_1452_n4227 GND.t110 nfet_06v0 ad=43.199997f pd=0.6u as=0.207p ps=1.51u w=0.36u l=0.6u
X50 a_1792_n5184 a_572_n4284.t7 GND.t79 GND.t78 nfet_06v0 ad=0.1782p pd=1.69u as=0.1053p ps=0.925u w=0.405u l=0.6u
X51 VDD.t110 a_124_n3449 a_36_n3352 VDD.t109 pfet_06v0 ad=0.5368p pd=3.32u as=0.5368p ps=3.32u w=1.22u l=1u
X52 a_2459_n2683 a_484_n2316.t3 a_1824_n2359 VDD.t123 pfet_06v0 ad=0.1665p pd=1.285u as=0.1791p ps=1.355u w=0.36u l=0.5u
X53 a_2752_n4271 a_2459_n4595 GND.t31 GND.t30 nfet_06v0 ad=0.176p pd=1.68u as=0.142p ps=1.14u w=0.4u l=0.6u
X54 GND.t26 a_1824_n3709 a_1776_n3665 GND.t25 nfet_06v0 ad=0.2637p pd=1.825u as=43.199997f ps=0.6u w=0.36u l=0.6u
X55 GND.t59 a_4044_n2408 a_3956_n2316 GND.t58 nfet_06v0 ad=0.3608p pd=2.52u as=0.3608p ps=2.52u w=0.82u l=1u
X56 F6.t12 a_1792_n5184 VDD.t11 VDD.t10 pfet_06v0 ad=0.4392p pd=1.94u as=0.367p ps=1.92u w=1.22u l=0.5u
X57 a_2752_n3709 a_2459_n3297 VDD.t119 VDD.t89 pfet_06v0 ad=0.352p pd=2.48u as=0.23p ps=1.54u w=0.8u l=0.5u
X58 a_1233_n1440 a_673_n1440 VDD.t92 VDD.t91 pfet_06v0 ad=0.2938p pd=1.65u as=0.4972p ps=3.14u w=1.13u l=0.5u
X59 F6.t4 a_1792_n5184 GND.t11 GND.t10 nfet_06v0 ad=0.1118p pd=0.95u as=0.1118p ps=0.95u w=0.43u l=0.6u
X60 UP.t0 a_757_24 GND.t49 GND.t48 nfet_06v0 ad=0.2112p pd=1.84u as=0.2112p ps=1.84u w=0.48u l=0.6u
X61 DOWN.t0 a_757_n1888.t2 GND.t128 GND.t127 nfet_06v0 ad=0.2112p pd=1.84u as=0.2112p ps=1.84u w=0.48u l=0.6u
X62 VDD.t135 a_2752_n4271 a_2744_n4595 VDD.t134 pfet_06v0 ad=0.23p pd=1.54u as=50.399998f ps=0.64u w=0.36u l=0.5u
X63 GND.t119 a_2752_n4271 a_2704_n4227 GND.t66 nfet_06v0 ad=0.142p pd=1.14u as=43.199997f ps=0.6u w=0.36u l=0.6u
X64 a_3024_472 a_2576_472 VDD.t66 VDD.t65 pfet_06v0 ad=0.5368p pd=3.32u as=0.5368p ps=3.32u w=1.22u l=0.5u
X65 a_2744_n4595 a_896_n4641 a_2459_n4595 VDD.t136 pfet_06v0 ad=50.399998f pd=0.64u as=0.1665p ps=1.285u w=0.36u l=0.5u
X66 a_1332_n3709 a_2752_n4271 GND.t118 GND.t64 nfet_06v0 ad=0.3608p pd=2.52u as=0.3608p ps=2.52u w=0.82u l=0.6u
X67 VDD.t58 a_757_24 a_673_472 VDD.t57 pfet_06v0 ad=0.4972p pd=3.14u as=0.2938p ps=1.65u w=1.13u l=0.5u
X68 a_224_n1440 a_124_n2844 VDD.t33 VDD.t32 pfet_06v0 ad=0.5368p pd=3.32u as=0.5368p ps=3.32u w=1.22u l=0.5u
X69 a_124_n3449 a_36_n3352 GND.t94 GND.t93 nfet_06v0 ad=0.3608p pd=2.52u as=0.3608p ps=2.52u w=0.82u l=1u
X70 a_224_472 CLK.t0 GND.t44 GND.t43 nfet_06v0 ad=0.2112p pd=1.84u as=0.2112p ps=1.84u w=0.48u l=0.6u
X71 a_757_24 a_1877_n1888 a_3703_68 GND.t145 nfet_06v0 ad=0.3608p pd=2.52u as=0.1722p ps=1.24u w=0.82u l=0.6u
X72 a_2752_n2359 a_2459_n2683 VDD.t90 VDD.t89 pfet_06v0 ad=0.352p pd=2.48u as=0.23p ps=1.54u w=0.8u l=0.5u
X73 GND.t147 a_1824_n4271 a_1776_n4227 GND.t25 nfet_06v0 ad=0.2637p pd=1.825u as=43.199997f ps=0.6u w=0.36u l=0.6u
X74 a_2576_472 a_673_472 GND.t99 GND.t98 nfet_06v0 ad=0.2112p pd=1.84u as=0.2112p ps=1.84u w=0.48u l=0.6u
X75 a_1317_n1888 a_1233_n1440 VDD.t39 VDD.t38 pfet_06v0 ad=0.2938p pd=1.65u as=0.4972p ps=3.14u w=1.13u l=0.5u
X76 a_1328_n2683 a_896_n2729 VDD.t146 VDD.t121 pfet_06v0 ad=53.999996f pd=0.66u as=0.4554p ps=3.25u w=0.36u l=0.5u
X77 VDD.t154 a_224_n5184 a_572_n4284.t1 VDD.t153 pfet_06v0 ad=0.5368p pd=3.32u as=0.3782p ps=1.84u w=1.22u l=0.5u
X78 a_896_n4641 a_484_n4228.t4 VDD.t50 VDD.t49 pfet_06v0 ad=0.3806p pd=2.61u as=0.2249p ps=1.385u w=0.865u l=0.5u
X79 a_896_n3352 a_484_n3673.t5 VDD.t145 VDD.t124 pfet_06v0 ad=0.3806p pd=2.61u as=0.2249p ps=1.385u w=0.865u l=0.5u
X80 a_757_n1888.t0 a_1877_n1888 VDD.t159 VDD.t158 pfet_06v0 ad=0.4334p pd=2.85u as=0.2561p ps=1.505u w=0.985u l=0.5u
X81 a_2459_n2683 a_896_n2729 a_1824_n2359 GND.t133 nfet_06v0 ad=93.59999f pd=0.88u as=93.59999f ps=0.88u w=0.36u l=0.6u
X82 a_1284_n2315 a_484_n2316.t4 GND.t124 GND.t123 nfet_06v0 ad=43.199997f pd=0.6u as=0.1584p ps=1.6u w=0.36u l=0.6u
X83 a_1877_n1888 a_1233_472 a_3473_n404 GND.t41 nfet_06v0 ad=0.3608p pd=2.52u as=0.1517p ps=1.19u w=0.82u l=0.6u
X84 VDD.t9 a_1792_n5184 F6.t11 VDD.t8 pfet_06v0 ad=0.5368p pd=3.32u as=0.4392p ps=1.94u w=1.22u l=0.5u
X85 a_693_n1844 a_224_n1440 GND.t116 GND.t115 nfet_06v0 ad=0.1312p pd=1.14u as=0.3608p ps=2.52u w=0.82u l=0.6u
X86 a_1452_n4227 a_224_n2800 a_1328_n4595 VDD.t155 pfet_06v0 ad=0.1872p pd=1.4u as=53.999996f ps=0.66u w=0.36u l=0.5u
X87 a_124_n4756 a_36_n4712 GND.t117 GND.t93 nfet_06v0 ad=0.3608p pd=2.52u as=0.3608p ps=2.52u w=0.82u l=1u
X88 GND.t77 a_572_n4284.t8 a_1792_n5184 GND.t76 nfet_06v0 ad=0.1053p pd=0.925u as=0.1053p ps=0.925u w=0.405u l=0.6u
X89 GND.t75 a_572_n4284.t9 a_484_n4228.t0 GND.t74 nfet_06v0 ad=0.1053p pd=0.925u as=0.1782p ps=1.69u w=0.405u l=0.6u
X90 a_3519_68 a_3024_472 GND.t1 GND.t0 nfet_06v0 ad=0.1312p pd=1.14u as=0.3608p ps=2.52u w=0.82u l=0.6u
X91 a_3024_n1440 a_2576_n1440 VDD.t107 VDD.t106 pfet_06v0 ad=0.5368p pd=3.32u as=0.5368p ps=3.32u w=1.22u l=0.5u
X92 a_1317_24 a_1233_472 VDD.t41 VDD.t40 pfet_06v0 ad=0.2938p pd=1.65u as=0.4972p ps=3.14u w=1.13u l=0.5u
X93 a_896_n2729 a_484_n2316.t5 VDD.t125 VDD.t124 pfet_06v0 ad=0.3806p pd=2.61u as=0.2249p ps=1.385u w=0.865u l=0.5u
X94 a_2459_n3297 a_484_n3673.t6 a_1824_n3709 VDD.t123 pfet_06v0 ad=0.1665p pd=1.285u as=0.1791p ps=1.355u w=0.36u l=0.5u
X95 GND.t107 a_460_n496 a_372_n404 GND.t106 nfet_06v0 ad=0.3608p pd=2.52u as=0.3608p ps=2.52u w=0.82u l=1u
X96 a_1317_24 a_1877_n1888 a_1813_68 GND.t144 nfet_06v0 ad=0.3608p pd=2.52u as=0.1312p ps=1.14u w=0.82u l=0.6u
X97 a_572_n4284.t1 a_224_n5184 VDD.t152 VDD.t151 pfet_06v0 ad=0.3782p pd=1.84u as=0.3782p ps=1.84u w=1.22u l=0.5u
X98 a_1233_472 a_673_472 VDD.t105 VDD.t104 pfet_06v0 ad=0.2938p pd=1.65u as=0.4972p ps=3.14u w=1.13u l=0.5u
X99 a_1813_68 a_1233_472 GND.t40 GND.t39 nfet_06v0 ad=0.1312p pd=1.14u as=0.3608p ps=2.52u w=0.82u l=0.6u
X100 a_1796_n4595 a_484_n4228.t5 a_1452_n4227 VDD.t99 pfet_06v0 ad=43.199997f pd=0.6u as=0.1872p ps=1.4u w=0.36u l=0.5u
X101 a_1824_n2359 a_1452_n2315 GND.t22 GND.t21 nfet_06v0 ad=93.59999f pd=0.88u as=0.2637p ps=1.825u w=0.36u l=0.6u
X102 a_224_n2800 a_124_n2844 VDD.t31 VDD.t30 pfet_06v0 ad=0.5368p pd=3.32u as=0.5368p ps=3.32u w=1.22u l=0.5u
X103 F6.t10 a_1792_n5184 VDD.t7 VDD.t6 pfet_06v0 ad=0.4392p pd=1.94u as=0.3172p ps=1.74u w=1.22u l=0.5u
X104 a_1804_n496 a_1716_n404 VDD.t52 VDD.t51 pfet_06v0 ad=0.5368p pd=3.32u as=0.5368p ps=3.32u w=1.22u l=1u
X105 VDD.t64 a_1824_n2359 a_1796_n2683 VDD.t24 pfet_06v0 ad=0.1044p pd=0.94u as=43.199997f ps=0.6u w=0.36u l=0.5u
X106 a_224_n5184 VCOIN.t1 VDD.t140 VDD.t139 pfet_06v0 ad=0.2542p pd=1.44u as=0.3608p ps=2.52u w=0.82u l=0.5u
X107 a_673_n1440 a_757_n1888.t3 a_693_n1844 GND.t102 nfet_06v0 ad=0.3608p pd=2.52u as=0.1312p ps=1.14u w=0.82u l=0.6u
X108 a_2704_n2315 a_484_n2316.t6 a_2459_n2683 GND.t29 nfet_06v0 ad=43.199997f pd=0.6u as=93.59999f ps=0.88u w=0.36u l=0.6u
X109 a_1452_n2315 a_1332_n2408 a_1284_n2315 GND.t57 nfet_06v0 ad=0.207p pd=1.51u as=43.199997f ps=0.6u w=0.36u l=0.6u
X110 VDD.t150 a_224_n5184 a_572_n4284.t0 VDD.t149 pfet_06v0 ad=0.3782p pd=1.84u as=0.3782p ps=1.84u w=1.22u l=0.5u
X111 a_1332_n3709 a_2752_n4271 VDD.t133 VDD.t132 pfet_06v0 ad=0.5368p pd=3.32u as=0.5368p ps=3.32u w=1.22u l=0.5u
X112 a_1824_n4271 a_1452_n4227 VDD.t127 VDD.t126 pfet_06v0 ad=0.1791p pd=1.355u as=0.1044p ps=0.94u w=0.36u l=0.5u
X113 a_2576_n1440 a_673_n1440 GND.t90 GND.t89 nfet_06v0 ad=0.2112p pd=1.84u as=0.2112p ps=1.84u w=0.48u l=0.6u
X114 a_896_n4641 a_484_n4228.t6 GND.t47 GND.t46 nfet_06v0 ad=0.1782p pd=1.69u as=0.1053p ps=0.925u w=0.405u l=0.6u
X115 VDD.t157 a_1877_n1888 a_1317_24 VDD.t156 pfet_06v0 ad=0.4972p pd=3.14u as=0.2938p ps=1.65u w=1.13u l=0.5u
X116 a_1776_n2315 a_896_n2729 a_1452_n2315 GND.t132 nfet_06v0 ad=43.199997f pd=0.6u as=0.207p ps=1.51u w=0.36u l=0.6u
X117 a_1332_n2408 a_2752_n3709 VDD.t71 VDD.t70 pfet_06v0 ad=0.5368p pd=3.32u as=0.5368p ps=3.32u w=1.22u l=0.5u
X118 a_1328_n3297 a_896_n3352 VDD.t122 VDD.t121 pfet_06v0 ad=53.999996f pd=0.66u as=0.4554p ps=3.25u w=0.36u l=0.5u
X119 VDD.t114 a_1317_24 a_1233_472 VDD.t113 pfet_06v0 ad=0.4972p pd=3.14u as=0.2938p ps=1.65u w=1.13u l=0.5u
X120 a_3473_n404 a_673_472 a_3269_n404 GND.t97 nfet_06v0 ad=0.1517p pd=1.19u as=0.1722p ps=1.24u w=0.82u l=0.6u
X121 a_2752_n2359 a_2459_n2683 GND.t84 GND.t83 nfet_06v0 ad=0.176p pd=1.68u as=0.142p ps=1.14u w=0.4u l=0.6u
X122 a_4044_n4320 a_3956_n4228 VDD.t112 VDD.t111 pfet_06v0 ad=0.5368p pd=3.32u as=0.5368p ps=3.32u w=1.22u l=1u
X123 F6.t3 a_1792_n5184 GND.t9 GND.t8 nfet_06v0 ad=0.1118p pd=0.95u as=0.1118p ps=0.95u w=0.43u l=0.6u
X124 VDD.t98 a_757_n1888.t4 a_673_n1440 VDD.t97 pfet_06v0 ad=0.4972p pd=3.14u as=0.2938p ps=1.65u w=1.13u l=0.5u
X125 a_757_n1888.t1 a_1877_n1888 a_3703_n1844 GND.t143 nfet_06v0 ad=0.3608p pd=2.52u as=0.1722p ps=1.24u w=0.82u l=0.6u
X126 VDD.t144 VCOIN.t2 a_224_n5184 VDD.t143 pfet_06v0 ad=0.428p pd=2.02u as=0.2542p ps=1.44u w=0.82u l=0.5u
X127 VDD.t47 a_4044_n3449 a_3956_n3352 VDD.t46 pfet_06v0 ad=0.5368p pd=3.32u as=0.5368p ps=3.32u w=1.22u l=1u
X128 a_1253_n1844 a_673_n1440 GND.t88 GND.t87 nfet_06v0 ad=0.1312p pd=1.14u as=0.3608p ps=2.52u w=0.82u l=0.6u
X129 GND.t141 a_224_n5184 a_572_n4284.t2 GND.t140 nfet_06v0 ad=0.2002p pd=1.79u as=0.1183p ps=0.975u w=0.455u l=0.6u
X130 a_572_n4284.t0 a_224_n5184 VDD.t148 VDD.t147 pfet_06v0 ad=0.3782p pd=1.84u as=0.428p ps=2.02u w=1.22u l=0.5u
X131 a_1877_n1888 a_673_472 VDD.t103 VDD.t102 pfet_06v0 ad=0.2197p pd=1.365u as=0.2197p ps=1.365u w=0.845u l=0.5u
X132 GND.t71 a_2752_n2359 a_2704_n2315 GND.t70 nfet_06v0 ad=0.142p pd=1.14u as=43.199997f ps=0.6u w=0.36u l=0.6u
X133 VDD.t75 a_2752_n2359 a_2744_n2683 VDD.t68 pfet_06v0 ad=0.23p pd=1.54u as=50.399998f ps=0.64u w=0.36u l=0.5u
X134 a_757_24 a_3024_472 VDD.t1 VDD.t0 pfet_06v0 ad=0.2561p pd=1.505u as=0.4334p ps=2.85u w=0.985u l=0.5u
X135 a_124_n2844 a_2752_n2359 GND.t69 GND.t68 nfet_06v0 ad=0.3608p pd=2.52u as=0.3608p ps=2.52u w=0.82u l=0.6u
X136 a_2744_n2683 a_896_n2729 a_2459_n2683 VDD.t120 pfet_06v0 ad=50.399998f pd=0.64u as=0.1665p ps=1.285u w=0.36u l=0.5u
X137 a_1233_472 a_1317_24 a_1253_68 GND.t105 nfet_06v0 ad=0.3608p pd=2.52u as=0.1312p ps=1.14u w=0.82u l=0.6u
X138 a_1253_68 a_673_472 GND.t96 GND.t95 nfet_06v0 ad=0.1312p pd=1.14u as=0.3608p ps=2.52u w=0.82u l=0.6u
X139 a_908_n496 a_820_n404 VDD.t60 VDD.t59 pfet_06v0 ad=0.5368p pd=3.32u as=0.5368p ps=3.32u w=1.22u l=1u
X140 a_1356_n496 a_1268_n404 VDD.t54 VDD.t53 pfet_06v0 ad=0.5368p pd=3.32u as=0.5368p ps=3.32u w=1.22u l=1u
X141 GND.t61 a_1824_n2359 a_1776_n2315 GND.t60 nfet_06v0 ad=0.2637p pd=1.825u as=43.199997f ps=0.6u w=0.36u l=0.6u
X142 F6.t2 a_1792_n5184 GND.t7 GND.t6 nfet_06v0 ad=0.1118p pd=0.95u as=0.1892p ps=1.74u w=0.43u l=0.6u
X143 a_3075_n404 a_673_n1440 GND.t86 GND.t85 nfet_06v0 ad=0.1517p pd=1.19u as=0.3608p ps=2.52u w=0.82u l=0.6u
X144 a_1813_n1844 a_1233_n1440 GND.t37 GND.t36 nfet_06v0 ad=0.1312p pd=1.14u as=0.3608p ps=2.52u w=0.82u l=0.6u
X145 a_4044_n3449 a_3956_n3352 GND.t92 GND.t91 nfet_06v0 ad=0.3608p pd=2.52u as=0.3608p ps=2.52u w=0.82u l=1u
X146 VDD.t86 a_572_n4284.t10 a_484_n3673.t1 VDD.t80 pfet_06v0 ad=0.2249p pd=1.385u as=0.3806p ps=2.61u w=0.865u l=0.5u
X147 VDD.t83 a_572_n4284.t11 a_1792_n5184 VDD.t82 pfet_06v0 ad=0.367p pd=1.92u as=0.2952p ps=1.54u w=0.82u l=0.5u
X148 VDD.t85 a_572_n4284.t12 a_484_n4228.t1 VDD.t84 pfet_06v0 ad=0.2249p pd=1.385u as=0.3806p ps=2.61u w=0.865u l=0.5u
X149 VDD.t37 a_1233_n1440 a_757_n1888.t0 VDD.t36 pfet_06v0 ad=0.2561p pd=1.505u as=0.2561p ps=1.505u w=0.985u l=0.5u
X150 a_1233_n1440 a_1317_n1888 a_1253_n1844 GND.t18 nfet_06v0 ad=0.3608p pd=2.52u as=0.1312p ps=1.14u w=0.82u l=0.6u
X151 a_224_n1440 a_124_n2844 GND.t34 GND.t32 nfet_06v0 ad=0.2112p pd=1.84u as=0.2112p ps=1.84u w=0.48u l=0.6u
X152 VDD.t25 a_1824_n3709 a_1796_n3297 VDD.t24 pfet_06v0 ad=0.1044p pd=0.94u as=43.199997f ps=0.6u w=0.36u l=0.5u
X153 a_3024_472 a_2576_472 GND.t63 GND.t62 nfet_06v0 ad=0.2112p pd=1.84u as=0.2112p ps=1.84u w=0.48u l=0.6u
X154 GND.t5 a_1792_n5184 F6.t1 GND.t4 nfet_06v0 ad=0.1118p pd=0.95u as=0.1118p ps=0.95u w=0.43u l=0.6u
X155 a_572_n4284.t2 a_224_n5184 GND.t139 GND.t138 nfet_06v0 ad=0.1183p pd=0.975u as=0.1183p ps=0.975u w=0.455u l=0.6u
X156 F6.t9 a_1792_n5184 VDD.t5 VDD.t4 pfet_06v0 ad=0.4392p pd=1.94u as=0.3172p ps=1.74u w=1.22u l=0.5u
X157 UP.t1 a_757_24 VDD.t56 VDD.t55 pfet_06v0 ad=0.5368p pd=3.32u as=0.5368p ps=3.32u w=1.22u l=0.5u
X158 a_12_n496 a_n76_n404 VDD.t62 VDD.t61 pfet_06v0 ad=0.5368p pd=3.32u as=0.5368p ps=3.32u w=1.22u l=1u
X159 a_224_n2800 a_124_n2844 GND.t33 GND.t32 nfet_06v0 ad=0.2112p pd=1.84u as=0.2112p ps=1.84u w=0.48u l=0.6u
X160 a_1452_n2315 a_1332_n2408 a_1328_n2683 VDD.t63 pfet_06v0 ad=0.1872p pd=1.4u as=53.999996f ps=0.66u w=0.36u l=0.5u
X161 GND.t104 a_1804_n496 a_1716_n404 GND.t103 nfet_06v0 ad=0.3608p pd=2.52u as=0.3608p ps=2.52u w=0.82u l=1u
X162 DOWN.t1 a_757_n1888.t5 VDD.t73 VDD.t72 pfet_06v0 ad=0.5368p pd=3.32u as=0.5368p ps=3.32u w=1.22u l=0.5u
X163 GND.t73 a_572_n4284.t13 a_484_n2316.t0 GND.t72 nfet_06v0 ad=0.1053p pd=0.925u as=0.1782p ps=1.69u w=0.405u l=0.6u
X164 a_2459_n4595 a_484_n4228.t7 a_1824_n4271 VDD.t108 pfet_06v0 ad=0.1665p pd=1.285u as=0.1791p ps=1.355u w=0.36u l=0.5u
X165 GND.t137 a_224_n5184 a_572_n4284.t3 GND.t136 nfet_06v0 ad=0.1183p pd=0.975u as=0.1183p ps=0.975u w=0.455u l=0.6u
X166 a_224_472 CLK.t1 VDD.t131 VDD.t130 pfet_06v0 ad=0.5368p pd=3.32u as=0.5368p ps=3.32u w=1.22u l=0.5u
X167 VDD.t81 a_572_n4284.t14 a_484_n2316.t1 VDD.t80 pfet_06v0 ad=0.2249p pd=1.385u as=0.3806p ps=2.61u w=0.865u l=0.5u
X168 VDD.t79 a_572_n4284.t15 a_1792_n5184 VDD.t78 pfet_06v0 ad=0.2132p pd=1.34u as=0.2952p ps=1.54u w=0.82u l=0.5u
X169 a_1317_n1888 a_1877_n1888 a_1813_n1844 GND.t142 nfet_06v0 ad=0.3608p pd=2.52u as=0.1312p ps=1.14u w=0.82u l=0.6u
X170 GND.t122 a_4044_n4320 a_3956_n4228 GND.t91 nfet_06v0 ad=0.3608p pd=2.52u as=0.3608p ps=2.52u w=0.82u l=1u
X171 a_3269_n404 a_1233_n1440 a_3075_n404 GND.t35 nfet_06v0 ad=0.1722p pd=1.24u as=0.1517p ps=1.19u w=0.82u l=0.6u
X172 GND.t3 a_1792_n5184 F6.t0 GND.t2 nfet_06v0 ad=0.1118p pd=0.95u as=0.1118p ps=0.95u w=0.43u l=0.6u
X173 a_1792_n5184 a_572_n4284.t16 VDD.t77 VDD.t76 pfet_06v0 ad=0.2952p pd=1.54u as=0.3608p ps=2.52u w=0.82u l=0.5u
X174 a_2576_472 a_673_472 VDD.t101 VDD.t100 pfet_06v0 ad=0.5368p pd=3.32u as=0.5368p ps=3.32u w=1.22u l=0.5u
X175 a_124_n2844 a_2752_n2359 VDD.t74 VDD.t70 pfet_06v0 ad=0.5368p pd=3.32u as=0.5368p ps=3.32u w=1.22u l=0.5u
X176 VDD.t19 a_1317_n1888 a_1233_n1440 VDD.t18 pfet_06v0 ad=0.4972p pd=3.14u as=0.2938p ps=1.65u w=1.13u l=0.5u
X177 a_1796_n2683 a_484_n2316.t7 a_1452_n2315 VDD.t48 pfet_06v0 ad=43.199997f pd=0.6u as=0.1872p ps=1.4u w=0.36u l=0.5u
X178 VDD.t3 a_1792_n5184 F6.t8 VDD.t2 pfet_06v0 ad=0.3172p pd=1.74u as=0.4392p ps=1.94u w=1.22u l=0.5u
X179 a_2459_n3297 a_896_n3352 a_1824_n3709 GND.t109 nfet_06v0 ad=93.59999f pd=0.88u as=93.59999f ps=0.88u w=0.36u l=0.6u
X180 a_2252_n496 a_2164_n404 VDD.t118 VDD.t117 pfet_06v0 ad=0.5368p pd=3.32u as=0.5368p ps=3.32u w=1.22u l=1u
X181 a_1284_n3665 a_484_n3673.t7 GND.t55 GND.t19 nfet_06v0 ad=43.199997f pd=0.6u as=0.1584p ps=1.6u w=0.36u l=0.6u
X182 VDD.t35 a_1233_n1440 a_1877_n1888 VDD.t34 pfet_06v0 ad=0.2197p pd=1.365u as=0.2197p ps=1.365u w=0.845u l=0.5u
X183 a_3024_n1440 a_2576_n1440 GND.t101 GND.t100 nfet_06v0 ad=0.2112p pd=1.84u as=0.2112p ps=1.84u w=0.48u l=0.6u
X184 VDD.t69 a_2752_n3709 a_2744_n3297 VDD.t68 pfet_06v0 ad=0.23p pd=1.54u as=50.399998f ps=0.64u w=0.36u l=0.5u
X185 a_1824_n2359 a_1452_n2315 VDD.t21 VDD.t20 pfet_06v0 ad=0.1791p pd=1.355u as=0.1044p ps=0.94u w=0.36u l=0.5u
X186 a_2752_n4271 a_2459_n4595 VDD.t29 VDD.t28 pfet_06v0 ad=0.352p pd=2.48u as=0.23p ps=1.54u w=0.8u l=0.5u
X187 a_2744_n3297 a_896_n3352 a_2459_n3297 VDD.t120 pfet_06v0 ad=50.399998f pd=0.64u as=0.1665p ps=1.285u w=0.36u l=0.5u
X188 a_4044_n2408 a_3956_n2316 VDD.t67 VDD.t46 pfet_06v0 ad=0.5368p pd=3.32u as=0.5368p ps=3.32u w=1.22u l=1u
X189 a_572_n4284.t3 a_224_n5184 GND.t135 GND.t134 nfet_06v0 ad=0.1183p pd=0.975u as=0.234325p ps=1.94u w=0.455u l=0.6u
R0 a_572_n4284.n2 a_572_n4284.t11 31.6987
R1 a_572_n4284.n3 a_572_n4284.t16 18.6885
R2 a_572_n4284.n0 a_572_n4284.t15 18.6885
R3 a_572_n4284.n2 a_572_n4284.t6 18.6885
R4 a_572_n4284.n5 a_572_n4284.t5 13.907
R5 a_572_n4284.n4 a_572_n4284.t13 13.8462
R6 a_572_n4284.n6 a_572_n4284.t9 13.8462
R7 a_572_n4284.n4 a_572_n4284.t14 12.1185
R8 a_572_n4284.n6 a_572_n4284.t12 12.1185
R9 a_572_n4284.n5 a_572_n4284.t10 12.0455
R10 a_572_n4284.n3 a_572_n4284.t4 11.1938
R11 a_572_n4284.n0 a_572_n4284.t8 11.1938
R12 a_572_n4284.n2 a_572_n4284.t7 11.1938
R13 a_572_n4284.n1 a_572_n4284.n4 10.6383
R14 a_572_n4284.n0 a_572_n4284.n3 10.5449
R15 a_572_n4284.n1 a_572_n4284.n6 10.2813
R16 a_572_n4284.n1 a_572_n4284.n5 10.2813
R17 a_572_n4284.n0 a_572_n4284.n1 8.87498
R18 a_572_n4284.n0 a_572_n4284.t3 7.33746
R19 a_572_n4284.n0 a_572_n4284.n2 6.48939
R20 a_572_n4284.n0 a_572_n4284.t2 6.46093
R21 a_572_n4284.t0 a_572_n4284.n0 6.01368
R22 a_572_n4284.n0 a_572_n4284.t1 5.4118
R23 GND.n83 GND.n82 19865.5
R24 GND.n62 GND.n6 18793.3
R25 GND.n82 GND.n62 17721.1
R26 GND.t78 GND.t6 3591.32
R27 GND.t125 GND.t134 3591.32
R28 GND.t140 GND.t81 3057.08
R29 GND.n83 GND.t125 2226.03
R30 GND.t72 GND.t32 1662.1
R31 GND.t10 GND.t14 1662.1
R32 GND.t12 GND.t10 1662.1
R33 GND.t16 GND.t12 1662.1
R34 GND.t4 GND.t16 1662.1
R35 GND.t8 GND.t4 1662.1
R36 GND.t2 GND.t8 1662.1
R37 GND.t6 GND.t2 1662.1
R38 GND.t76 GND.t78 1662.1
R39 GND.t81 GND.t76 1662.1
R40 GND.t138 GND.t140 1662.1
R41 GND.t136 GND.t138 1662.1
R42 GND.t134 GND.t136 1662.1
R43 GND.t74 GND.t93 1513.7
R44 GND.t64 GND.t30 1439.5
R45 GND.t23 GND.t83 1406.11
R46 GND.t106 GND.t43 1394.98
R47 GND.t19 GND.t46 1365.3
R48 GND.n81 GND.t93 1261.42
R49 GND.t87 GND.t129 1250.29
R50 GND.n69 GND.t64 1246.58
R51 GND.n72 GND.t91 1231.74
R52 GND.t132 GND.t57 1202.05
R53 GND.t110 GND.t56 1202.05
R54 GND.t113 GND.t25 1157.53
R55 GND.n14 GND.t62 1113.01
R56 GND.n61 GND.t32 1113.01
R57 GND.n15 GND.t144 1109.3
R58 GND.t39 GND.t120 1101.88
R59 GND.t143 GND.t58 1101.88
R60 GND.n62 GND.n61 1072.2
R61 GND.n82 GND.n81 1072.2
R62 GND.t30 GND.t66 994.293
R63 GND.t21 GND.t142 960.903
R64 GND.t53 GND.n6 845.89
R65 GND.n34 GND.n33 831.051
R66 GND.t45 GND.t109 831.051
R67 GND.t109 GND.t113 831.051
R68 GND.t46 GND.t74 831.051
R69 GND.t42 GND.t145 756.85
R70 GND.t35 GND.t97 756.85
R71 GND.t85 GND.t35 719.75
R72 GND.t111 GND.t50 708.62
R73 GND.t95 GND.t111 686.359
R74 GND.t51 GND.t98 682.649
R75 GND.t105 GND.t95 682.649
R76 GND.t50 GND.t27 682.649
R77 GND.t133 GND.n9 682.649
R78 GND.t102 GND.t115 682.649
R79 GND.t38 GND.t68 649.259
R80 GND.t100 GND.t70 638.129
R81 GND.n46 GND.t38 626.999
R82 GND.t70 GND.t29 623.288
R83 GND.t66 GND.t45 623.288
R84 GND.t25 GND.t110 623.288
R85 GND.t56 GND.t19 623.288
R86 GND.t18 GND.t123 567.638
R87 GND.t103 GND.t39 560.217
R88 GND.t48 GND.n12 554.422
R89 GND.t0 GND.t41 549.087
R90 GND.t98 GND.n14 549.087
R91 GND.t60 GND.t36 486.017
R92 GND.n15 GND.t51 430.365
R93 GND.t89 GND.t133 430.365
R94 GND.t29 GND.t89 400.685
R95 GND.t83 GND.t100 356.164
R96 GND.t120 GND.t105 293.094
R97 GND.n34 GND.t48 281.964
R98 GND.t27 GND.t106 270.834
R99 GND.t43 GND.t53 267.123
R100 GND.t58 GND.t127 267.123
R101 GND.n33 GND.t145 255.994
R102 GND.t142 GND.t60 196.632
R103 GND.t97 GND.t0 170.662
R104 GND.n9 GND.t21 148.403
R105 GND.t129 GND.t102 144.692
R106 GND.t36 GND.t132 137.273
R107 GND.t41 GND.t42 133.562
R108 GND.n46 GND.t143 129.852
R109 GND.t144 GND.t103 122.433
R110 GND.t62 GND.t85 115.011
R111 GND.t123 GND.t87 115.011
R112 GND.t57 GND.t18 55.6512
R113 GND.t68 GND.t23 33.3909
R114 GND.n72 GND.n69 29.6809
R115 GND.n54 GND.n8 12.033
R116 GND.n77 GND.n66 12.033
R117 GND.n77 GND.n65 12.033
R118 GND.n56 GND.t124 11.0292
R119 GND.n78 GND.t20 11.0292
R120 GND.n78 GND.t55 11.0292
R121 GND.n88 GND.t82 10.5091
R122 GND.n94 GND.t15 10.3593
R123 GND.n90 GND.t7 10.2792
R124 GND.n87 GND.t141 10.0514
R125 GND.n85 GND.t135 10.0514
R126 GND.n35 GND.t49 9.93604
R127 GND.n29 GND.t63 9.93604
R128 GND.n26 GND.t99 9.93604
R129 GND.n16 GND.t44 9.93604
R130 GND.n11 GND.t128 9.93604
R131 GND.n51 GND.t101 9.93604
R132 GND.n52 GND.t90 9.93604
R133 GND.n60 GND.t33 9.93604
R134 GND.n60 GND.t34 9.93604
R135 GND.n84 GND.t126 9.15882
R136 GND.n70 GND.t122 8.53771
R137 GND.n42 GND.t59 8.51229
R138 GND.n17 GND.t54 8.51132
R139 GND.n19 GND.t107 8.51132
R140 GND.n21 GND.t112 8.51132
R141 GND.n22 GND.t121 8.51132
R142 GND.n24 GND.t104 8.51132
R143 GND.n27 GND.t52 8.51132
R144 GND.n71 GND.t92 8.51132
R145 GND.n80 GND.t117 8.51132
R146 GND.n80 GND.t94 8.51132
R147 GND.n30 GND.t86 8.48197
R148 GND.n48 GND.t69 8.46241
R149 GND.n75 GND.t118 8.46241
R150 GND.n75 GND.t65 8.46241
R151 GND.n31 GND.t1 8.4135
R152 GND.n23 GND.t40 8.4135
R153 GND.n20 GND.t96 8.4135
R154 GND.n18 GND.t28 8.4135
R155 GND.n49 GND.t24 8.4135
R156 GND.n55 GND.t37 8.4135
R157 GND.n57 GND.t88 8.4135
R158 GND.n59 GND.t116 8.4135
R159 GND.n8 GND.t22 8.4005
R160 GND.n8 GND.t61 8.4005
R161 GND.n66 GND.t114 8.4005
R162 GND.n66 GND.t147 8.4005
R163 GND.n65 GND.t146 8.4005
R164 GND.n65 GND.t26 8.4005
R165 GND.n10 GND.t71 8.0855
R166 GND.n68 GND.t119 8.0855
R167 GND.n67 GND.t67 8.0855
R168 GND.n50 GND.n10 6.54898
R169 GND.n76 GND.n67 6.54898
R170 GND.n76 GND.n68 6.54898
R171 GND.n58 GND.n7 6.46859
R172 GND.n79 GND.n63 6.46859
R173 GND.n79 GND.n64 6.46859
R174 GND.n89 GND.n4 6.46462
R175 GND.n93 GND.n1 6.45138
R176 GND.n92 GND.n2 6.45138
R177 GND.n91 GND.n3 6.45138
R178 GND.n86 GND.n5 6.45138
R179 GND.n84 GND.n83 5.46326
R180 GND.n16 GND.n6 5.38021
R181 GND.n28 GND.n14 5.32359
R182 GND.n33 GND.n32 5.32359
R183 GND.n36 GND.n34 5.32359
R184 GND.n47 GND.n46 5.32359
R185 GND.n73 GND.n72 5.32359
R186 GND.n25 GND.n15 5.32226
R187 GND.n53 GND.n9 5.32226
R188 GND.n74 GND.n69 5.32226
R189 GND.n10 GND.t84 4.0955
R190 GND.n68 GND.t31 4.0955
R191 GND.n67 GND.t108 4.0955
R192 GND.n4 GND.t79 4.04494
R193 GND.n4 GND.t77 4.04494
R194 GND.n7 GND.t130 4.04494
R195 GND.n7 GND.t73 4.04494
R196 GND.n64 GND.t47 4.04494
R197 GND.n64 GND.t75 4.04494
R198 GND.n63 GND.t131 4.04494
R199 GND.n63 GND.t80 4.04494
R200 GND.n1 GND.t11 3.8098
R201 GND.n1 GND.t13 3.8098
R202 GND.n2 GND.t17 3.8098
R203 GND.n2 GND.t5 3.8098
R204 GND.n3 GND.t9 3.8098
R205 GND.n3 GND.t3 3.8098
R206 GND.t115 GND.t72 3.71055
R207 GND.n5 GND.t139 3.6005
R208 GND.n5 GND.t137 3.6005
R209 GND.n61 GND.n60 2.72066
R210 GND.n81 GND.n80 2.72066
R211 GND.n38 GND.n13 2.28317
R212 GND.n45 GND.n44 2.28317
R213 GND.n38 GND.n37 2.2505
R214 GND.n44 GND.n43 2.2505
R215 GND.n95 GND.n94 2.23903
R216 GND.n42 GND.n41 1.15798
R217 GND.n39 GND.n12 1.14765
R218 GND.n70 GND.n0 1.12597
R219 GND.n40 GND.n39 0.9215
R220 GND.n41 GND.n40 0.563
R221 GND.n90 GND.n89 0.3635
R222 GND.n85 GND.n84 0.3635
R223 GND.n40 GND.n0 0.359
R224 GND.n95 GND.n0 0.342875
R225 GND.n93 GND.n92 0.3365
R226 GND.n92 GND.n91 0.3365
R227 GND.n91 GND.n90 0.3365
R228 GND.n89 GND.n88 0.3365
R229 GND.n87 GND.n86 0.3365
R230 GND.n86 GND.n85 0.3365
R231 GND.n77 GND.n76 0.286527
R232 GND.n78 GND.n77 0.286527
R233 GND.n94 GND.n93 0.235423
R234 GND.n80 GND.n79 0.207623
R235 GND.n32 GND.n31 0.175877
R236 GND.n56 GND.n55 0.163548
R237 GND.n88 GND.n87 0.1415
R238 GND.n48 GND.n47 0.141048
R239 GND.n60 GND.n59 0.13889
R240 GND.n22 GND.n21 0.138582
R241 GND.n52 GND.n51 0.138582
R242 GND.n75 GND.n74 0.138582
R243 GND.n31 GND.n30 0.137349
R244 GND.n24 GND.n23 0.128411
R245 GND.n55 GND.n54 0.123479
R246 GND.n76 GND.n75 0.120089
R247 GND.n50 GND.n49 0.117315
R248 GND.n20 GND.n19 0.114233
R249 GND.n79 GND.n78 0.113925
R250 GND.n58 GND.n57 0.10437
R251 GND.n47 GND.n45 0.083411
R252 GND.n18 GND.n17 0.0797123
R253 GND.n71 GND.n70 0.0704815
R254 GND.n59 GND.n58 0.0692329
R255 GND.n54 GND.n53 0.060911
R256 GND.n17 GND.n16 0.0596781
R257 GND.n19 GND.n18 0.0593699
R258 GND.n29 GND.n28 0.0584452
R259 GND.n26 GND.n25 0.0584452
R260 GND.n53 GND.n52 0.0584452
R261 GND.n28 GND.n27 0.0559795
R262 GND.n25 GND.n24 0.0559795
R263 GND.n73 GND.n71 0.0559795
R264 GND.n32 GND.n13 0.0513562
R265 GND.n37 GND.n12 0.0444564
R266 GND.n43 GND.n42 0.0341269
R267 GND.n51 GND.n50 0.030089
R268 GND.n43 GND.n11 0.0260822
R269 GND.n27 GND.n26 0.0251575
R270 GND.n21 GND.n20 0.0248493
R271 GND.n39 GND.n38 0.0168356
R272 GND.n44 GND.n41 0.0168356
R273 GND.n37 GND.n36 0.0149863
R274 GND.n36 GND.n35 0.0115959
R275 GND GND.n95 0.011375
R276 GND.n23 GND.n22 0.0106712
R277 GND.n30 GND.n29 0.0100548
R278 GND.n57 GND.n56 0.0100548
R279 GND.n35 GND.n13 0.00758904
R280 GND.n45 GND.n11 0.00758904
R281 GND.n49 GND.n48 0.00327397
R282 GND.n74 GND.n73 0.00296575
R283 a_484_n2316.n2 a_484_n2316.t3 121.874
R284 a_484_n2316.t3 a_484_n2316.t6 61.5152
R285 a_484_n2316.n0 a_484_n2316.t4 52.378
R286 a_484_n2316.n0 a_484_n2316.t5 17.7882